8
Coordinates from ORCA-job acetate E -227.860712350896
  C      -0.815890     -0.515710     -0.025120
  C       0.306900      0.493270     -0.061140
  H      -0.428090     -1.567130     -0.280600
  H      -1.269140     -0.515200      1.069620
  H      -1.646310     -0.145180     -0.751040
  O       0.165870      1.682790     -0.214700
  O       1.513800     -0.073030      0.218990
  H       2.168010      0.646250      0.131430
8
Coordinates from ORCA-job acetate E -227.877033377868
  C      -0.816555     -0.510469     -0.017424
  C       0.299802      0.492994     -0.033671
  H      -0.455761     -1.503136     -0.257817
  H      -1.242540     -0.518572      0.986443
  H      -1.588362     -0.179057     -0.704154
  O       0.172655      1.655358     -0.213336
  O       1.493856     -0.062722      0.201397
  H       2.132055      0.631664      0.126001
8
Coordinates from ORCA-job acetate E -227.877295388918
  C      -0.817507     -0.508397     -0.017860
  C       0.302860      0.490650     -0.061323
  H      -0.470929     -1.497381     -0.272685
  H      -1.212946     -0.524223      0.989957
  H      -1.602645     -0.181179     -0.680909
  O       0.174635      1.651339     -0.235784
  O       1.489211     -0.059122      0.192474
  H       2.132472      0.634374      0.173570
8
Coordinates from ORCA-job acetate E -227.877237500342
  C      -0.818788     -0.504081     -0.012460
  C       0.300755      0.497562     -0.044490
  H      -0.472857     -1.488987     -0.284674
  H      -1.208705     -0.541369      0.996032
  H      -1.606430     -0.180239     -0.673275
  O       0.175673      1.649606     -0.268304
  O       1.485610     -0.055378      0.179277
  H       2.139892      0.628946      0.195334
8
Coordinates from ORCA-job acetate E -227.877488840559
  C      -0.817754     -0.504976     -0.015883
  C       0.302303      0.494825     -0.058768
  H      -0.473913     -1.492226     -0.291606
  H      -1.199007     -0.541083      1.000502
  H      -1.613683     -0.175437     -0.668994
  O       0.175180      1.650562     -0.269616
  O       1.485000     -0.055340      0.197380
  H       2.137025      0.629735      0.194425
8
Coordinates from ORCA-job acetate E -227.877533853905
  C      -0.817887     -0.504181     -0.016581
  C       0.302397      0.494767     -0.063636
  H      -0.477319     -1.489384     -0.304585
  H      -1.186031     -0.550343      1.003801
  H      -1.621059     -0.169568     -0.657766
  O       0.176826      1.648347     -0.287910
  O       1.481690     -0.053044      0.212626
  H       2.136532      0.629465      0.201491
8
Coordinates from ORCA-job acetate E -227.877737763661
  C      -0.819348     -0.498899     -0.019370
  C       0.304068      0.493028     -0.093819
  H      -0.507018     -1.465127     -0.395234
  H      -1.096215     -0.620405      1.023431
  H      -1.668506     -0.127587     -0.573532
  O       0.196443      1.623849     -0.421615
  O       1.457037     -0.031499      0.308775
  H       2.128689      0.632700      0.258803
8
Coordinates from ORCA-job acetate E -227.877841614377
  C      -0.821177     -0.495813     -0.018206
  C       0.305076      0.490962     -0.108229
  H      -0.530310     -1.444588     -0.453844
  H      -1.040833     -0.671175      1.029657
  H      -1.694228     -0.099269     -0.513864
  O       0.216963      1.598700     -0.511393
  O       1.439612     -0.012930      0.368112
  H       2.120047      0.640173      0.295206
8
Coordinates from ORCA-job acetate E -227.877938422041
  C      -0.823498     -0.494069     -0.013595
  C       0.305134      0.489508     -0.112011
  H      -0.545924     -1.424966     -0.494779
  H      -1.010256     -0.711126      1.032263
  H      -1.708232     -0.079121     -0.471958
  O       0.237365      1.574320     -0.575053
  O       1.429278      0.001164      0.406167
  H       2.111282      0.650349      0.316407
8
Coordinates from ORCA-job acetate E -227.877961885258
  C      -0.824624     -0.493675     -0.010116
  C       0.306147      0.487287     -0.113528
  H      -0.552223     -1.415638     -0.510956
  H      -1.001984     -0.726713      1.033984
  H      -1.712585     -0.071213     -0.455845
  O       0.246856      1.562445     -0.598809
  O       1.427717      0.005384      0.416887
  H       2.105847      0.658183      0.325822
8
Coordinates from ORCA-job acetate E -227.877963711248
  C      -0.824772     -0.493697     -0.009232
  C       0.306721      0.486277     -0.114010
  H      -0.553377     -1.413999     -0.513882
  H      -1.001415     -0.728905      1.034330
  H      -1.712921     -0.069865     -0.453204
  O       0.248222      1.560238     -0.602248
  O       1.427996      0.005855      0.418513
  H       2.104696      0.660156      0.327174
8
Coordinates from ORCA-job acetate E -227.877963997756
  C      -0.824739     -0.493729     -0.008946
  C       0.306986      0.485894     -0.114061
  H      -0.553687     -1.413584     -0.514632
  H      -1.001595     -0.729369      1.034447
  H      -1.712815     -0.069543     -0.452773
  O       0.248326      1.559687     -0.602823
  O       1.428122      0.006107      0.419206
  H       2.104552      0.660597      0.327023
