# opt freq hf/3-21g geom=connectivity

Title Card Required

 0,1
  O                                                -0.720493631337      0.647781671702      0.000000000000
  H                                                 0.246259859626      0.662765709969      0.000000000000
  H                                                -1.029078003763      1.564085397977      0.000000000000

 1 2 1.000 3 1.000
 2 1 1.000
 3 1 1.000
 
