9
Coordinates from ORCA-job ethanol E -154.125744041813
  H           1.88294135452277     -0.04041238189461      1.08224425094904
  C           1.27230205229002     -0.04759501655018      0.18382328511667
  H           1.55494452917473      0.79818561161969     -0.43411307354742
  H           1.48020184360670     -0.95749623270799     -0.36928809847598
  C          -0.19785154227718      0.02808973717120      0.53814593680359
  H          -0.47216008476328     -0.81806730931368      1.16708031038031
  H          -0.39733396896207      0.93838724557390      1.10237140071756
  O          -0.93844245014880      0.01569746482481     -0.65470679203789
  H          -1.85600173344289      0.06161088127686     -0.45725721990589
