9
Coordinates from ORCA-job ethanol E -154.124384864557
  H       1.885300     -0.040100      1.085400
  C       1.269900     -0.047700      0.177200
  H       1.584000      0.800700     -0.444900
  H       1.508900     -0.963600     -0.379100
  C      -0.203300      0.028200      0.534500
  H      -0.499300     -0.828700      1.171400
  H      -0.423500      0.951300      1.106400
  O      -0.939400      0.015700     -0.667400
  H      -1.854000      0.062600     -0.425200
9
Coordinates from ORCA-job ethanol E -154.125626046529
  H       1.880848     -0.040158      1.081827
  C       1.269486     -0.047491      0.182908
  H       1.566016      0.794315     -0.433539
  H       1.491564     -0.954765     -0.368568
  C      -0.198310      0.027976      0.533736
  H      -0.478670     -0.815513      1.162901
  H      -0.404045      0.935928      1.098736
  O      -0.943313      0.015955     -0.661013
  H      -1.854978      0.062153     -0.438690
9
Coordinates from ORCA-job ethanol E -154.125719969492
  H       1.881678     -0.040275      1.082163
  C       1.270878     -0.047522      0.184023
  H       1.559470      0.796364     -0.433038
  H       1.484866     -0.956103     -0.368143
  C      -0.197467      0.028011      0.535717
  H      -0.473715     -0.816625      1.164230
  H      -0.398995      0.936806      1.099827
  O      -0.941539      0.015886     -0.657524
  H      -1.856577      0.061859     -0.448955
9
Coordinates from ORCA-job ethanol E -154.125743635961
  H       1.882786     -0.040395      1.082280
  C       1.272134     -0.047584      0.183981
  H       1.555100      0.798135     -0.433875
  H       1.480360     -0.957460     -0.369030
  C      -0.197676      0.028085      0.537942
  H      -0.471959     -0.818164      1.166602
  H      -0.397111      0.938429      1.101925
  O      -0.938843      0.015750     -0.654764
  H      -1.856190      0.061602     -0.456761
9
Coordinates from ORCA-job ethanol E -154.125744041813
  H       1.882941     -0.040412      1.082244
  C       1.272302     -0.047595      0.183823
  H       1.554945      0.798186     -0.434113
  H       1.480202     -0.957496     -0.369288
  C      -0.197852      0.028090      0.538146
  H      -0.472160     -0.818067      1.167080
  H      -0.397334      0.938387      1.102371
  O      -0.938442      0.015697     -0.654707
  H      -1.856002      0.061611     -0.457257
