4
* (null), Energy   -1000.0000000
C    -0.588972    0.000000    0.000000   -0.121228    0.000000   -0.000000
O     0.589676    0.000000   -0.000000    0.001978   -0.000000   -0.000000
H    -1.170678    0.927529    0.000000    0.706559   -1.222058    0.000000
H    -1.170678   -0.927529    0.000000    0.706559    1.222058    0.000000
4
* Frequency(10) 3091.5683
C    -0.602749    0.000000   -0.000000   -0.121228    0.000000   -0.000000
O     0.589901   -0.000000   -0.000000    0.001978   -0.000000   -0.000000
H    -1.090382    0.788649    0.000000    0.706559   -1.222058    0.000000
H    -1.090382   -0.788649    0.000000    0.706559    1.222058    0.000000
4
* Frequency(10) 3091.5683
C    -0.615033    0.000000   -0.000000   -0.121228    0.000000   -0.000000
O     0.590101   -0.000000   -0.000000    0.001978   -0.000000   -0.000000
H    -1.018786    0.664818    0.000000    0.706559   -1.222058    0.000000
H    -1.018786   -0.664818    0.000000    0.706559    1.222058    0.000000
4
* Frequency(10) 3091.5683
C    -0.624493    0.000000   -0.000000   -0.121228    0.000000   -0.000000
O     0.590256   -0.000000   -0.000000    0.001978   -0.000000   -0.000000
H    -0.963651    0.569457    0.000000    0.706559   -1.222058    0.000000
H    -0.963651   -0.569457    0.000000    0.706559    1.222058    0.000000
4
* Frequency(10) 3091.5683
C    -0.630103    0.000000   -0.000000   -0.121228    0.000000   -0.000000
O     0.590347   -0.000000   -0.000000    0.001978   -0.000000   -0.000000
H    -0.930950    0.512897    0.000000    0.706559   -1.222058    0.000000
H    -0.930950   -0.512897    0.000000    0.706559    1.222058    0.000000
4
* Frequency(10) 3091.5683
C    -0.631257    0.000000   -0.000000   -0.121228    0.000000   -0.000000
O     0.590366   -0.000000   -0.000000    0.001978   -0.000000   -0.000000
H    -0.924227    0.501270    0.000000    0.706559   -1.222058    0.000000
H    -0.924227   -0.501270    0.000000    0.706559    1.222058    0.000000
4
* Frequency(10) 3091.5683
C    -0.627828    0.000000   -0.000000   -0.121228    0.000000   -0.000000
O     0.590310   -0.000000   -0.000000    0.001978   -0.000000   -0.000000
H    -0.944212    0.535835    0.000000    0.706559   -1.222058    0.000000
H    -0.944212   -0.535835    0.000000    0.706559    1.222058    0.000000
4
* Frequency(10) 3091.5683
C    -0.620189    0.000000   -0.000000   -0.121228    0.000000   -0.000000
O     0.590186   -0.000000   -0.000000    0.001978   -0.000000   -0.000000
H    -0.988737    0.612846    0.000000    0.706559   -1.222058    0.000000
H    -0.988737   -0.612846    0.000000    0.706559    1.222058    0.000000
4
* Frequency(10) 3091.5683
C    -0.609166    0.000000   -0.000000   -0.121228    0.000000   -0.000000
O     0.590006   -0.000000   -0.000000    0.001978   -0.000000   -0.000000
H    -1.052979    0.723957    0.000000    0.706559   -1.222058    0.000000
H    -1.052979   -0.723957    0.000000    0.706559    1.222058    0.000000
4
* Frequency(10) 3091.5683
C    -0.595956    0.000000   -0.000000   -0.121228    0.000000   -0.000000
O     0.589790   -0.000000   -0.000000    0.001978   -0.000000   -0.000000
H    -1.129975    0.857129    0.000000    0.706559   -1.222058    0.000000
H    -1.129975   -0.857129    0.000000    0.706559    1.222058    0.000000
4
* Frequency(10) 3091.5683
C    -0.581988   -0.000000    0.000000   -0.121228    0.000000   -0.000000
O     0.589562    0.000000    0.000000    0.001978   -0.000000   -0.000000
H    -1.211382    0.997930   -0.000000    0.706559   -1.222058    0.000000
H    -1.211382   -0.997930   -0.000000    0.706559    1.222058    0.000000
4
* Frequency(10) 3091.5683
C    -0.568778   -0.000000    0.000000   -0.121228    0.000000   -0.000000
O     0.589347    0.000000    0.000000    0.001978   -0.000000   -0.000000
H    -1.288378    1.131102   -0.000000    0.706559   -1.222058    0.000000
H    -1.288378   -1.131102   -0.000000    0.706559    1.222058    0.000000
4
* Frequency(10) 3091.5683
C    -0.557756   -0.000000    0.000000   -0.121228    0.000000   -0.000000
O     0.589167    0.000000    0.000000    0.001978   -0.000000   -0.000000
H    -1.352620    1.242213   -0.000000    0.706559   -1.222058    0.000000
H    -1.352620   -1.242213   -0.000000    0.706559    1.222058    0.000000
4
* Frequency(10) 3091.5683
C    -0.550116   -0.000000    0.000000   -0.121228    0.000000   -0.000000
O     0.589042    0.000000    0.000000    0.001978   -0.000000   -0.000000
H    -1.397145    1.319224   -0.000000    0.706559   -1.222058    0.000000
H    -1.397145   -1.319224   -0.000000    0.706559    1.222058    0.000000
4
* Frequency(10) 3091.5683
C    -0.546687   -0.000000    0.000000   -0.121228    0.000000   -0.000000
O     0.588986    0.000000    0.000000    0.001978   -0.000000   -0.000000
H    -1.417129    1.353789   -0.000000    0.706559   -1.222058    0.000000
H    -1.417129   -1.353789   -0.000000    0.706559    1.222058    0.000000
4
* Frequency(10) 3091.5683
C    -0.547841   -0.000000    0.000000   -0.121228    0.000000   -0.000000
O     0.589005    0.000000    0.000000    0.001978   -0.000000   -0.000000
H    -1.410407    1.342162   -0.000000    0.706559   -1.222058    0.000000
H    -1.410407   -1.342162   -0.000000    0.706559    1.222058    0.000000
4
* Frequency(10) 3091.5683
C    -0.553451   -0.000000    0.000000   -0.121228    0.000000   -0.000000
O     0.589097    0.000000    0.000000    0.001978   -0.000000   -0.000000
H    -1.377706    1.285602   -0.000000    0.706559   -1.222058    0.000000
H    -1.377706   -1.285602   -0.000000    0.706559    1.222058    0.000000
4
* Frequency(10) 3091.5683
C    -0.562911   -0.000000    0.000000   -0.121228    0.000000   -0.000000
O     0.589251    0.000000    0.000000    0.001978   -0.000000   -0.000000
H    -1.322570    1.190241   -0.000000    0.706559   -1.222058    0.000000
H    -1.322570   -1.190241   -0.000000    0.706559    1.222058    0.000000
4
* Frequency(10) 3091.5683
C    -0.575195   -0.000000    0.000000   -0.121228    0.000000   -0.000000
O     0.589452    0.000000    0.000000    0.001978   -0.000000   -0.000000
H    -1.250975    1.066410   -0.000000    0.706559   -1.222058    0.000000
H    -1.250975   -1.066410   -0.000000    0.706559    1.222058    0.000000
4
* Frequency(10) 3091.5683
C    -0.588972   -0.000000    0.000000   -0.121228    0.000000   -0.000000
O     0.589676    0.000000    0.000000    0.001978   -0.000000   -0.000000
H    -1.170678    0.927529   -0.000000    0.706559   -1.222058    0.000000
H    -1.170678   -0.927529   -0.000000    0.706559    1.222058    0.000000
