4
* (null), Energy   -1000.0000000
C    -0.588972   -0.000000    0.000000   -0.000000   -0.298692    0.000000
O     0.589676    0.000000   -0.000000   -0.000000    0.160281   -0.000000
H    -1.170678    0.927529   -0.000000    1.298045    0.507568   -0.000000
H    -1.170678   -0.927529    0.000000   -1.298045    0.507568    0.000000
4
* Frequency(7) 1372.1943
C    -0.588972   -0.033945    0.000000   -0.000000   -0.298692    0.000000
O     0.589676    0.018215   -0.000000   -0.000000    0.160281   -0.000000
H    -1.023162    0.985212   -0.000000    1.298045    0.507568   -0.000000
H    -1.318194   -0.869847    0.000000   -1.298045    0.507568    0.000000
4
* Frequency(7) 1372.1943
C    -0.588972   -0.064211    0.000000   -0.000000   -0.298692    0.000000
O     0.589676    0.034456   -0.000000   -0.000000    0.160281   -0.000000
H    -0.891632    1.036644   -0.000000    1.298045    0.507568   -0.000000
H    -1.449725   -0.818415    0.000000   -1.298045    0.507568    0.000000
4
* Frequency(7) 1372.1943
C    -0.588972   -0.087519    0.000000   -0.000000   -0.298692    0.000000
O     0.589676    0.046964   -0.000000   -0.000000    0.160281   -0.000000
H    -0.790340    1.076251   -0.000000    1.298045    0.507568   -0.000000
H    -1.551016   -0.778808    0.000000   -1.298045    0.507568    0.000000
4
* Frequency(7) 1372.1943
C    -0.588972   -0.101343    0.000000   -0.000000   -0.298692    0.000000
O     0.589676    0.054382   -0.000000   -0.000000    0.160281   -0.000000
H    -0.730265    1.099742   -0.000000    1.298045    0.507568   -0.000000
H    -1.611092   -0.755317    0.000000   -1.298045    0.507568    0.000000
4
* Frequency(7) 1372.1943
C    -0.588972   -0.104185    0.000000   -0.000000   -0.298692    0.000000
O     0.589676    0.055907   -0.000000   -0.000000    0.160281   -0.000000
H    -0.717914    1.104572   -0.000000    1.298045    0.507568   -0.000000
H    -1.623442   -0.750487    0.000000   -1.298045    0.507568    0.000000
4
* Frequency(7) 1372.1943
C    -0.588972   -0.095737    0.000000   -0.000000   -0.298692    0.000000
O     0.589676    0.051373   -0.000000   -0.000000    0.160281   -0.000000
H    -0.754628    1.090216   -0.000000    1.298045    0.507568   -0.000000
H    -1.586729   -0.764843    0.000000   -1.298045    0.507568    0.000000
4
* Frequency(7) 1372.1943
C    -0.588972   -0.076914    0.000000   -0.000000   -0.298692    0.000000
O     0.589676    0.041273   -0.000000   -0.000000    0.160281   -0.000000
H    -0.836427    1.058230   -0.000000    1.298045    0.507568   -0.000000
H    -1.504929   -0.796829    0.000000   -1.298045    0.507568    0.000000
4
* Frequency(7) 1372.1943
C    -0.588972   -0.049757    0.000000   -0.000000   -0.298692    0.000000
O     0.589676    0.026700   -0.000000   -0.000000    0.160281   -0.000000
H    -0.954448    1.012081   -0.000000    1.298045    0.507568   -0.000000
H    -1.386909   -0.842978    0.000000   -1.298045    0.507568    0.000000
4
* Frequency(7) 1372.1943
C    -0.588972   -0.017207    0.000000   -0.000000   -0.298692    0.000000
O     0.589676    0.009233   -0.000000   -0.000000    0.160281   -0.000000
H    -1.095900    0.956770   -0.000000    1.298045    0.507568   -0.000000
H    -1.245456   -0.898289    0.000000   -1.298045    0.507568    0.000000
4
* Frequency(7) 1372.1943
C    -0.588972    0.017207   -0.000000   -0.000000   -0.298692    0.000000
O     0.589676   -0.009233    0.000000   -0.000000    0.160281   -0.000000
H    -1.245456    0.898289    0.000000    1.298045    0.507568   -0.000000
H    -1.095900   -0.956770   -0.000000   -1.298045    0.507568    0.000000
4
* Frequency(7) 1372.1943
C    -0.588972    0.049757   -0.000000   -0.000000   -0.298692    0.000000
O     0.589676   -0.026700    0.000000   -0.000000    0.160281   -0.000000
H    -1.386909    0.842978    0.000000    1.298045    0.507568   -0.000000
H    -0.954448   -1.012081   -0.000000   -1.298045    0.507568    0.000000
4
* Frequency(7) 1372.1943
C    -0.588972    0.076914   -0.000000   -0.000000   -0.298692    0.000000
O     0.589676   -0.041273    0.000000   -0.000000    0.160281   -0.000000
H    -1.504929    0.796829    0.000000    1.298045    0.507568   -0.000000
H    -0.836427   -1.058230   -0.000000   -1.298045    0.507568    0.000000
4
* Frequency(7) 1372.1943
C    -0.588972    0.095737   -0.000000   -0.000000   -0.298692    0.000000
O     0.589676   -0.051373    0.000000   -0.000000    0.160281   -0.000000
H    -1.586729    0.764843    0.000000    1.298045    0.507568   -0.000000
H    -0.754628   -1.090216   -0.000000   -1.298045    0.507568    0.000000
4
* Frequency(7) 1372.1943
C    -0.588972    0.104185   -0.000000   -0.000000   -0.298692    0.000000
O     0.589676   -0.055907    0.000000   -0.000000    0.160281   -0.000000
H    -1.623442    0.750487    0.000000    1.298045    0.507568   -0.000000
H    -0.717914   -1.104572   -0.000000   -1.298045    0.507568    0.000000
4
* Frequency(7) 1372.1943
C    -0.588972    0.101343   -0.000000   -0.000000   -0.298692    0.000000
O     0.589676   -0.054382    0.000000   -0.000000    0.160281   -0.000000
H    -1.611092    0.755317    0.000000    1.298045    0.507568   -0.000000
H    -0.730265   -1.099742   -0.000000   -1.298045    0.507568    0.000000
4
* Frequency(7) 1372.1943
C    -0.588972    0.087519   -0.000000   -0.000000   -0.298692    0.000000
O     0.589676   -0.046964    0.000000   -0.000000    0.160281   -0.000000
H    -1.551016    0.778808    0.000000    1.298045    0.507568   -0.000000
H    -0.790340   -1.076251   -0.000000   -1.298045    0.507568    0.000000
4
* Frequency(7) 1372.1943
C    -0.588972    0.064211   -0.000000   -0.000000   -0.298692    0.000000
O     0.589676   -0.034456    0.000000   -0.000000    0.160281   -0.000000
H    -1.449725    0.818415    0.000000    1.298045    0.507568   -0.000000
H    -0.891632   -1.036644   -0.000000   -1.298045    0.507568    0.000000
4
* Frequency(7) 1372.1943
C    -0.588972    0.033945   -0.000000   -0.000000   -0.298692    0.000000
O     0.589676   -0.018215    0.000000   -0.000000    0.160281   -0.000000
H    -1.318194    0.869847    0.000000    1.298045    0.507568   -0.000000
H    -1.023162   -0.985212   -0.000000   -1.298045    0.507568    0.000000
4
* Frequency(7) 1372.1943
C    -0.588972    0.000000   -0.000000   -0.000000   -0.298692    0.000000
O     0.589676   -0.000000    0.000000   -0.000000    0.160281   -0.000000
H    -1.170678    0.927529    0.000000    1.298045    0.507568   -0.000000
H    -1.170678   -0.927529   -0.000000   -1.298045    0.507568    0.000000
