4
* (null), Energy   -1000.0000000
C    -0.588972    0.000000    0.000000   -0.003899    0.000000   -0.000000
O     0.589676    0.000000    0.000000   -0.150885   -0.000000    0.000000
H    -1.170678    0.927529    0.000000    1.220659    0.706117    0.000000
H    -1.170678   -0.927529    0.000000    1.220659   -0.706117    0.000000
4
* Frequency(8) 1656.5846
C    -0.589415    0.000000   -0.000000   -0.003899    0.000000   -0.000000
O     0.572529   -0.000000    0.000000   -0.150885   -0.000000    0.000000
H    -1.031957    1.007776    0.000000    1.220659    0.706117    0.000000
H    -1.031957   -1.007776    0.000000    1.220659   -0.706117    0.000000
4
* Frequency(8) 1656.5846
C    -0.589810    0.000000   -0.000000   -0.003899    0.000000   -0.000000
O     0.557240   -0.000000    0.000000   -0.150885   -0.000000    0.000000
H    -0.908268    1.079327    0.000000    1.220659    0.706117    0.000000
H    -0.908268   -1.079327    0.000000    1.220659   -0.706117    0.000000
4
* Frequency(8) 1656.5846
C    -0.590115    0.000000   -0.000000   -0.003899    0.000000   -0.000000
O     0.545466   -0.000000    0.000000   -0.150885   -0.000000    0.000000
H    -0.813015    1.134428    0.000000    1.220659    0.706117    0.000000
H    -0.813015   -1.134428    0.000000    1.220659   -0.706117    0.000000
4
* Frequency(8) 1656.5846
C    -0.590295    0.000000   -0.000000   -0.003899    0.000000   -0.000000
O     0.538482   -0.000000    0.000000   -0.150885   -0.000000    0.000000
H    -0.756521    1.167108    0.000000    1.220659    0.706117    0.000000
H    -0.756521   -1.167108    0.000000    1.220659   -0.706117    0.000000
4
* Frequency(8) 1656.5846
C    -0.590332    0.000000   -0.000000   -0.003899    0.000000   -0.000000
O     0.537047   -0.000000    0.000000   -0.150885   -0.000000    0.000000
H    -0.744907    1.173826    0.000000    1.220659    0.706117    0.000000
H    -0.744907   -1.173826    0.000000    1.220659   -0.706117    0.000000
4
* Frequency(8) 1656.5846
C    -0.590222    0.000000   -0.000000   -0.003899    0.000000   -0.000000
O     0.541314   -0.000000    0.000000   -0.150885   -0.000000    0.000000
H    -0.779432    1.153855    0.000000    1.220659    0.706117    0.000000
H    -0.779432   -1.153855    0.000000    1.220659   -0.706117    0.000000
4
* Frequency(8) 1656.5846
C    -0.589976    0.000000   -0.000000   -0.003899    0.000000   -0.000000
O     0.550823   -0.000000    0.000000   -0.150885   -0.000000    0.000000
H    -0.856355    1.109357    0.000000    1.220659    0.706117    0.000000
H    -0.856355   -1.109357    0.000000    1.220659   -0.706117    0.000000
4
* Frequency(8) 1656.5846
C    -0.589622    0.000000   -0.000000   -0.003899    0.000000   -0.000000
O     0.564542   -0.000000    0.000000   -0.150885   -0.000000    0.000000
H    -0.967339    1.045156    0.000000    1.220659    0.706117    0.000000
H    -0.967339   -1.045156    0.000000    1.220659   -0.706117    0.000000
4
* Frequency(8) 1656.5846
C    -0.589197    0.000000   -0.000000   -0.003899    0.000000   -0.000000
O     0.580984   -0.000000    0.000000   -0.150885   -0.000000    0.000000
H    -1.100358    0.968208    0.000000    1.220659    0.706117    0.000000
H    -1.100358   -0.968208    0.000000    1.220659   -0.706117    0.000000
4
* Frequency(8) 1656.5846
C    -0.588747   -0.000000    0.000000   -0.003899    0.000000   -0.000000
O     0.598368    0.000000   -0.000000   -0.150885   -0.000000    0.000000
H    -1.240998    0.886851   -0.000000    1.220659    0.706117    0.000000
H    -1.240998   -0.886851   -0.000000    1.220659   -0.706117    0.000000
4
* Frequency(8) 1656.5846
C    -0.588322   -0.000000    0.000000   -0.003899    0.000000   -0.000000
O     0.614811    0.000000   -0.000000   -0.150885   -0.000000    0.000000
H    -1.374018    0.809903   -0.000000    1.220659    0.706117    0.000000
H    -1.374018   -0.809903   -0.000000    1.220659   -0.706117    0.000000
4
* Frequency(8) 1656.5846
C    -0.587968   -0.000000    0.000000   -0.003899    0.000000   -0.000000
O     0.628530    0.000000   -0.000000   -0.150885   -0.000000    0.000000
H    -1.485002    0.745702   -0.000000    1.220659    0.706117    0.000000
H    -1.485002   -0.745702   -0.000000    1.220659   -0.706117    0.000000
4
* Frequency(8) 1656.5846
C    -0.587722   -0.000000    0.000000   -0.003899    0.000000   -0.000000
O     0.638038    0.000000   -0.000000   -0.150885   -0.000000    0.000000
H    -1.561925    0.701204   -0.000000    1.220659    0.706117    0.000000
H    -1.561925   -0.701204   -0.000000    1.220659   -0.706117    0.000000
4
* Frequency(8) 1656.5846
C    -0.587612   -0.000000    0.000000   -0.003899    0.000000   -0.000000
O     0.642306    0.000000   -0.000000   -0.150885   -0.000000    0.000000
H    -1.596450    0.681233   -0.000000    1.220659    0.706117    0.000000
H    -1.596450   -0.681233   -0.000000    1.220659   -0.706117    0.000000
4
* Frequency(8) 1656.5846
C    -0.587649   -0.000000    0.000000   -0.003899    0.000000   -0.000000
O     0.640870    0.000000   -0.000000   -0.150885   -0.000000    0.000000
H    -1.584836    0.687951   -0.000000    1.220659    0.706117    0.000000
H    -1.584836   -0.687951   -0.000000    1.220659   -0.706117    0.000000
4
* Frequency(8) 1656.5846
C    -0.587829   -0.000000    0.000000   -0.003899    0.000000   -0.000000
O     0.633887    0.000000   -0.000000   -0.150885   -0.000000    0.000000
H    -1.528342    0.720631   -0.000000    1.220659    0.706117    0.000000
H    -1.528342   -0.720631   -0.000000    1.220659   -0.706117    0.000000
4
* Frequency(8) 1656.5846
C    -0.588134   -0.000000    0.000000   -0.003899    0.000000   -0.000000
O     0.622113    0.000000   -0.000000   -0.150885   -0.000000    0.000000
H    -1.433089    0.775732   -0.000000    1.220659    0.706117    0.000000
H    -1.433089   -0.775732   -0.000000    1.220659   -0.706117    0.000000
4
* Frequency(8) 1656.5846
C    -0.588529   -0.000000    0.000000   -0.003899    0.000000   -0.000000
O     0.606824    0.000000   -0.000000   -0.150885   -0.000000    0.000000
H    -1.309400    0.847283   -0.000000    1.220659    0.706117    0.000000
H    -1.309400   -0.847283   -0.000000    1.220659   -0.706117    0.000000
4
* Frequency(8) 1656.5846
C    -0.588972   -0.000000    0.000000   -0.003899    0.000000   -0.000000
O     0.589676    0.000000   -0.000000   -0.150885   -0.000000    0.000000
H    -1.170678    0.927529   -0.000000    1.220659    0.706117    0.000000
H    -1.170678   -0.927529   -0.000000    1.220659   -0.706117    0.000000
