4
Coordinates from ORCA-job h2o E -113.899154041723
  C           0.00334215202692     -0.00000000000001      0.00000000000025
  O           1.18199046836786      0.00000000000002     -0.00000000000008
  H          -0.57836415027103      0.92752948709848     -0.00000000000008
  H          -0.57836415027106     -0.92752948709848     -0.00000000000008
