4
* (null), Energy   -1000.0000000
C    -0.588972    0.000000    0.000000   -1.203501    0.000000    0.000000
O     0.589676    0.000000   -0.000000    0.865007    0.000000   -0.000000
H    -1.170678    0.927529    0.000000    0.305557    0.899061    0.000000
H    -1.170678   -0.927529    0.000000    0.305557   -0.899061    0.000000
4
* Frequency(9) 2005.9622
C    -0.725744    0.000000    0.000000   -1.203501    0.000000    0.000000
O     0.687980    0.000000   -0.000000    0.865007    0.000000   -0.000000
H    -1.135953    1.029703    0.000000    0.305557    0.899061    0.000000
H    -1.135953   -1.029703    0.000000    0.305557   -0.899061    0.000000
4
* Frequency(9) 2005.9622
C    -0.847694    0.000000    0.000000   -1.203501    0.000000    0.000000
O     0.775631    0.000000   -0.000000    0.865007    0.000000   -0.000000
H    -1.104991    1.120805    0.000000    0.305557    0.899061    0.000000
H    -1.104991   -1.120805    0.000000    0.305557   -0.899061    0.000000
4
* Frequency(9) 2005.9622
C    -0.941608    0.000000    0.000000   -1.203501    0.000000    0.000000
O     0.843130    0.000000   -0.000000    0.865007    0.000000   -0.000000
H    -1.081148    1.190962    0.000000    0.305557    0.899061    0.000000
H    -1.081148   -1.190962    0.000000    0.305557   -0.899061    0.000000
4
* Frequency(9) 2005.9622
C    -0.997308    0.000000    0.000000   -1.203501    0.000000    0.000000
O     0.883164    0.000000   -0.000000    0.865007    0.000000   -0.000000
H    -1.067006    1.232572    0.000000    0.305557    0.899061    0.000000
H    -1.067006   -1.232572    0.000000    0.305557   -0.899061    0.000000
4
* Frequency(9) 2005.9622
C    -1.008759    0.000000    0.000000   -1.203501    0.000000    0.000000
O     0.891395    0.000000   -0.000000    0.865007    0.000000   -0.000000
H    -1.064099    1.241126    0.000000    0.305557    0.899061    0.000000
H    -1.064099   -1.241126    0.000000    0.305557   -0.899061    0.000000
4
* Frequency(9) 2005.9622
C    -0.974719    0.000000    0.000000   -1.203501    0.000000    0.000000
O     0.866929    0.000000   -0.000000    0.865007    0.000000   -0.000000
H    -1.072741    1.215697    0.000000    0.305557    0.899061    0.000000
H    -1.072741   -1.215697    0.000000    0.305557   -0.899061    0.000000
4
* Frequency(9) 2005.9622
C    -0.898877    0.000000    0.000000   -1.203501    0.000000    0.000000
O     0.812418    0.000000   -0.000000    0.865007    0.000000   -0.000000
H    -1.091996    1.159041    0.000000    0.305557    0.899061    0.000000
H    -1.091996   -1.159041    0.000000    0.305557   -0.899061    0.000000
4
* Frequency(9) 2005.9622
C    -0.789453    0.000000    0.000000   -1.203501    0.000000    0.000000
O     0.733770    0.000000   -0.000000    0.865007    0.000000   -0.000000
H    -1.119778    1.077296    0.000000    0.305557    0.899061    0.000000
H    -1.119778   -1.077296    0.000000    0.305557   -0.899061    0.000000
4
* Frequency(9) 2005.9622
C    -0.658303    0.000000    0.000000   -1.203501    0.000000    0.000000
O     0.639508    0.000000   -0.000000    0.865007    0.000000   -0.000000
H    -1.153076    0.979323    0.000000    0.305557    0.899061    0.000000
H    -1.153076   -0.979323    0.000000    0.305557   -0.899061    0.000000
4
* Frequency(9) 2005.9622
C    -0.519641   -0.000000   -0.000000   -1.203501    0.000000    0.000000
O     0.539845   -0.000000    0.000000    0.865007    0.000000   -0.000000
H    -1.188281    0.875736   -0.000000    0.305557    0.899061    0.000000
H    -1.188281   -0.875736   -0.000000    0.305557   -0.899061    0.000000
4
* Frequency(9) 2005.9622
C    -0.388491   -0.000000   -0.000000   -1.203501    0.000000    0.000000
O     0.445582   -0.000000    0.000000    0.865007    0.000000   -0.000000
H    -1.221579    0.777763   -0.000000    0.305557    0.899061    0.000000
H    -1.221579   -0.777763   -0.000000    0.305557   -0.899061    0.000000
4
* Frequency(9) 2005.9622
C    -0.279067   -0.000000   -0.000000   -1.203501    0.000000    0.000000
O     0.366934   -0.000000    0.000000    0.865007    0.000000   -0.000000
H    -1.249360    0.696018   -0.000000    0.305557    0.899061    0.000000
H    -1.249360   -0.696018   -0.000000    0.305557   -0.899061    0.000000
4
* Frequency(9) 2005.9622
C    -0.203225   -0.000000   -0.000000   -1.203501    0.000000    0.000000
O     0.312424   -0.000000    0.000000    0.865007    0.000000   -0.000000
H    -1.268616    0.639362   -0.000000    0.305557    0.899061    0.000000
H    -1.268616   -0.639362   -0.000000    0.305557   -0.899061    0.000000
4
* Frequency(9) 2005.9622
C    -0.169186   -0.000000   -0.000000   -1.203501    0.000000    0.000000
O     0.287958   -0.000000    0.000000    0.865007    0.000000   -0.000000
H    -1.277258    0.613933   -0.000000    0.305557    0.899061    0.000000
H    -1.277258   -0.613933   -0.000000    0.305557   -0.899061    0.000000
4
* Frequency(9) 2005.9622
C    -0.180636   -0.000000   -0.000000   -1.203501    0.000000    0.000000
O     0.296188   -0.000000    0.000000    0.865007    0.000000   -0.000000
H    -1.274351    0.622487   -0.000000    0.305557    0.899061    0.000000
H    -1.274351   -0.622487   -0.000000    0.305557   -0.899061    0.000000
4
* Frequency(9) 2005.9622
C    -0.236336   -0.000000   -0.000000   -1.203501    0.000000    0.000000
O     0.336222   -0.000000    0.000000    0.865007    0.000000   -0.000000
H    -1.260209    0.664097   -0.000000    0.305557    0.899061    0.000000
H    -1.260209   -0.664097   -0.000000    0.305557   -0.899061    0.000000
4
* Frequency(9) 2005.9622
C    -0.330250   -0.000000   -0.000000   -1.203501    0.000000    0.000000
O     0.403722   -0.000000    0.000000    0.865007    0.000000   -0.000000
H    -1.236365    0.734254   -0.000000    0.305557    0.899061    0.000000
H    -1.236365   -0.734254   -0.000000    0.305557   -0.899061    0.000000
4
* Frequency(9) 2005.9622
C    -0.452200   -0.000000   -0.000000   -1.203501    0.000000    0.000000
O     0.491373   -0.000000    0.000000    0.865007    0.000000   -0.000000
H    -1.205403    0.825356   -0.000000    0.305557    0.899061    0.000000
H    -1.205403   -0.825356   -0.000000    0.305557   -0.899061    0.000000
4
* Frequency(9) 2005.9622
C    -0.588972   -0.000000   -0.000000   -1.203501    0.000000    0.000000
O     0.589676   -0.000000    0.000000    0.865007    0.000000   -0.000000
H    -1.170678    0.927529   -0.000000    0.305557    0.899061    0.000000
H    -1.170678   -0.927529   -0.000000    0.305557   -0.899061    0.000000
