%chk=bicycloheptane.chk
#p opt freq hf/6-311++g(d,p) geom=connectivity

Title Card Required

0 1
 C                 -0.44011545    1.00254232    0.02625249
 C                  1.10159455    1.00254232    0.02625249
 C                  0.56047955    3.21154232    0.02625249
 C                 -0.80668645    2.49903132    0.02644049
 H                 -0.84851945    0.47872032   -0.86925951
 H                 -0.83174145    0.49465332    0.93943049
 H                 -1.41120945    2.77497832   -0.86885151
 H                 -1.38836945    2.76814732    0.93995149
 C                  1.40422055    2.24744532    0.89976549
 H                  2.48342655    2.51183932    0.92000249
 H                  1.01959355    2.15324632    1.93811449
 C                  1.55725855    1.49177132   -1.36280851
 H                  2.65715055    1.34959132   -1.48668751
 H                  1.03754055    0.94042832   -2.18078151
 C                  1.19053455    2.98826532   -1.36293951
 H                  2.10002455    3.62286232   -1.48701051
 H                  0.47471655    3.23658032   -2.18092951
 H                  1.56187055    0.05204932    0.35333949
 H                  0.52935555    4.26712632    0.35346649

 1 2 1.0 4 1.0 5 1.0 6 1.0
 2 9 1.0 12 1.0 18 1.0
 3 4 1.0 9 1.0 15 1.0 19 1.0
 4 7 1.0 8 1.0
 5
 6
 7
 8
 9 10 1.0 11 1.0
 10
 11
 12 13 1.0 14 1.0 15 1.0
 13
 14
 15 16 1.0 17 1.0
 16
 17
 18
 19

