%chk=h2o_dimer.chk
#p opt freq hf/6-311g geom=connectivity 

Title Card Required

0 1
 O                 -4.32389975    0.71089086   -0.26769794
 H                 -3.16666680    0.86044436    0.10629349
 H                 -4.55100059   -0.21555568   -0.37596629
 O                 -1.08509828    0.85818521    0.29827781
 H                 -0.26089598    1.18692409    0.74847775
 H                 -1.28316915    1.41312654   -0.45961931

 1 2 1.0 3 1.0
 2
 3
 4 5 1.0 6 1.0
 5
 6

