6
Coordinates from ORCA-job methanol E -115.074983311247
  H       1.200100      0.036300      0.843100
  C       0.703100      0.008300     -0.130500
  H       0.987700      0.894300     -0.711400
  H       1.015500     -0.891800     -0.674200
  O      -0.658200     -0.006700      0.173000
  H      -1.132600     -0.031100     -0.648200
6
Coordinates from ORCA-job methanol E -115.075767503257
  H       1.216364      0.036256      0.828541
  C       0.703772      0.008431     -0.124032
  H       0.990808      0.884992     -0.700998
  H       1.018375     -0.882000     -0.664217
  O      -0.668751     -0.007094      0.160889
  H      -1.144966     -0.031285     -0.648383
6
Coordinates from ORCA-job methanol E -115.075806798236
  H       1.222647      0.036303      0.826147
  C       0.703169      0.008459     -0.121926
  H       0.990803      0.885200     -0.698358
  H       1.018395     -0.882101     -0.661574
  O      -0.669914     -0.007170      0.157586
  H      -1.149501     -0.031390     -0.650075
6
Coordinates from ORCA-job methanol E -115.075811367251
  H       1.223975      0.036308      0.825490
  C       0.702351      0.008448     -0.121765
  H       0.990820      0.885773     -0.697551
  H       1.018432     -0.882639     -0.660747
  O      -0.669597     -0.007180      0.156589
  H      -1.150381     -0.031411     -0.650216
6
Coordinates from ORCA-job methanol E -115.075811966975
  H       1.223924      0.036301      0.825261
  C       0.701918      0.008438     -0.121974
  H       0.991069      0.885937     -0.697355
  H       1.018681     -0.882785     -0.660545
  O      -0.669354     -0.007173      0.156491
  H      -1.150638     -0.031418     -0.650078
