6
* (null), Energy   -1000.0000000
H     1.220882    0.036303    0.827663    0.008918   -0.573160    0.011918
C     0.725915    0.008722   -0.126353    0.000252   -0.016378    0.000338
H     1.012203    0.883923   -0.695291    0.134034    0.204076    0.416446
H     1.039736   -0.880028   -0.658581   -0.140084    0.182314   -0.424466
O    -0.676712   -0.007548    0.143904   -0.002124    0.136488   -0.002832
H    -1.206425   -0.032072   -0.639541    0.027848   -1.784416    0.037038
6
* Frequency(6)  341.1200
H     1.221895   -0.028834    0.829017    0.008918   -0.573160    0.011918
C     0.725944    0.006861   -0.126315    0.000252   -0.016378    0.000338
H     1.027435    0.907115   -0.647964    0.134034    0.204076    0.416446
H     1.023816   -0.859309   -0.706819   -0.140084    0.182314   -0.424466
O    -0.676953    0.007963    0.143582   -0.002124    0.136488   -0.002832
H    -1.203260   -0.234862   -0.635332    0.027848   -1.784416    0.037038
6
* Frequency(6)  341.1200
H     1.222799   -0.086912    0.830225    0.008918   -0.573160    0.011918
C     0.725969    0.005201   -0.126280    0.000252   -0.016378    0.000338
H     1.041017    0.927794   -0.605766    0.134034    0.204076    0.416446
H     1.009622   -0.840835   -0.749830   -0.140084    0.182314   -0.424466
O    -0.677169    0.021793    0.143295   -0.002124    0.136488   -0.002832
H    -1.200438   -0.415676   -0.631579    0.027848   -1.784416    0.037038
6
* Frequency(6)  341.1200
H     1.223495   -0.131638    0.831155    0.008918   -0.573160    0.011918
C     0.725989    0.003923   -0.126254    0.000252   -0.016378    0.000338
H     1.051476    0.943719   -0.573269    0.134034    0.204076    0.416446
H     0.998690   -0.826608   -0.782953   -0.140084    0.182314   -0.424466
O    -0.677334    0.032444    0.143074   -0.002124    0.136488   -0.002832
H    -1.198265   -0.554921   -0.628689    0.027848   -1.784416    0.037038
6
* Frequency(6)  341.1200
H     1.223908   -0.158165    0.831707    0.008918   -0.573160    0.011918
C     0.726001    0.003165   -0.126238    0.000252   -0.016378    0.000338
H     1.057679    0.953164   -0.553995    0.134034    0.204076    0.416446
H     0.992207   -0.818171   -0.802598   -0.140084    0.182314   -0.424466
O    -0.677433    0.038761    0.142943   -0.002124    0.136488   -0.002832
H    -1.196976   -0.637507   -0.626974    0.027848   -1.784416    0.037038
6
* Frequency(6)  341.1200
H     1.223993   -0.163618    0.831820    0.008918   -0.573160    0.011918
C     0.726003    0.003009   -0.126235    0.000252   -0.016378    0.000338
H     1.058955    0.955106   -0.550033    0.134034    0.204076    0.416446
H     0.990874   -0.816436   -0.806637   -0.140084    0.182314   -0.424466
O    -0.677453    0.040060    0.142916   -0.002124    0.136488   -0.002832
H    -1.196711   -0.654484   -0.626622    0.027848   -1.784416    0.037038
6
* Frequency(6)  341.1200
H     1.223740   -0.147407    0.831483    0.008918   -0.573160    0.011918
C     0.725996    0.003473   -0.126245    0.000252   -0.016378    0.000338
H     1.055164    0.949334   -0.561811    0.134034    0.204076    0.416446
H     0.994836   -0.821593   -0.794631   -0.140084    0.182314   -0.424466
O    -0.677393    0.036199    0.142996   -0.002124    0.136488   -0.002832
H    -1.197499   -0.604014   -0.627670    0.027848   -1.784416    0.037038
6
* Frequency(6)  341.1200
H     1.223178   -0.111288    0.830732    0.008918   -0.573160    0.011918
C     0.725980    0.004505   -0.126266    0.000252   -0.016378    0.000338
H     1.046717    0.936473   -0.588055    0.134034    0.204076    0.416446
H     1.003664   -0.833082   -0.767882   -0.140084    0.182314   -0.424466
O    -0.677259    0.027598    0.143175   -0.002124    0.136488   -0.002832
H    -1.199254   -0.491565   -0.630004    0.027848   -1.784416    0.037038
6
* Frequency(6)  341.1200
H     1.222368   -0.059175    0.829648    0.008918   -0.573160    0.011918
C     0.725957    0.005994   -0.126297    0.000252   -0.016378    0.000338
H     1.034531    0.917918   -0.625919    0.134034    0.204076    0.416446
H     1.016401   -0.849658   -0.729289   -0.140084    0.182314   -0.424466
O    -0.677066    0.015188    0.143432   -0.002124    0.136488   -0.002832
H    -1.201786   -0.329323   -0.633371    0.027848   -1.784416    0.037038
6
* Frequency(6)  341.1200
H     1.221396    0.003284    0.828350    0.008918   -0.573160    0.011918
C     0.725930    0.007778   -0.126334    0.000252   -0.016378    0.000338
H     1.019924    0.895679   -0.671300    0.134034    0.204076    0.416446
H     1.031666   -0.869525   -0.683034   -0.140084    0.182314   -0.424466
O    -0.676834    0.000315    0.143741   -0.002124    0.136488   -0.002832
H    -1.204821   -0.134869   -0.637407    0.027848   -1.784416    0.037038
6
* Frequency(6)  341.1200
H     1.220368    0.069322    0.826976    0.008918   -0.573160    0.011918
C     0.725900    0.009666   -0.126372    0.000252   -0.016378    0.000338
H     1.004482    0.872167   -0.719282    0.134034    0.204076    0.416446
H     1.047806   -0.890531   -0.634128   -0.140084    0.182314   -0.424466
O    -0.676590   -0.015411    0.144067   -0.002124    0.136488   -0.002832
H    -1.208029    0.070725   -0.641675    0.027848   -1.784416    0.037038
6
* Frequency(6)  341.1200
H     1.219396    0.131781    0.825678    0.008918   -0.573160    0.011918
C     0.725873    0.011450   -0.126409    0.000252   -0.016378    0.000338
H     0.989875    0.849928   -0.764663    0.134034    0.204076    0.416446
H     1.063071   -0.910398   -0.587873   -0.140084    0.182314   -0.424466
O    -0.676358   -0.030284    0.144376   -0.002124    0.136488   -0.002832
H    -1.211064    0.265179   -0.645711    0.027848   -1.784416    0.037038
6
* Frequency(6)  341.1200
H     1.218586    0.183894    0.824594    0.008918   -0.573160    0.011918
C     0.725850    0.012939   -0.126440    0.000252   -0.016378    0.000338
H     0.977689    0.831373   -0.802527    0.134034    0.204076    0.416446
H     1.075808   -0.926974   -0.549280   -0.140084    0.182314   -0.424466
O    -0.676165   -0.042694    0.144633   -0.002124    0.136488   -0.002832
H    -1.213596    0.427421   -0.649078    0.027848   -1.784416    0.037038
6
* Frequency(6)  341.1200
H     1.218024    0.220013    0.823843    0.008918   -0.573160    0.011918
C     0.725834    0.013971   -0.126461    0.000252   -0.016378    0.000338
H     0.969242    0.818512   -0.828771    0.134034    0.204076    0.416446
H     1.084636   -0.938463   -0.522531   -0.140084    0.182314   -0.424466
O    -0.676031   -0.051295    0.144812   -0.002124    0.136488   -0.002832
H    -1.215351    0.539870   -0.651412    0.027848   -1.784416    0.037038
6
* Frequency(6)  341.1200
H     1.217771    0.236224    0.823506    0.008918   -0.573160    0.011918
C     0.725827    0.014435   -0.126471    0.000252   -0.016378    0.000338
H     0.965451    0.812740   -0.840549    0.134034    0.204076    0.416446
H     1.088598   -0.943620   -0.510525   -0.140084    0.182314   -0.424466
O    -0.675971   -0.055156    0.144892   -0.002124    0.136488   -0.002832
H    -1.216139    0.590340   -0.652460    0.027848   -1.784416    0.037038
6
* Frequency(6)  341.1200
H     1.217856    0.230771    0.823619    0.008918   -0.573160    0.011918
C     0.725829    0.014279   -0.126468    0.000252   -0.016378    0.000338
H     0.966727    0.814682   -0.836587    0.134034    0.204076    0.416446
H     1.087265   -0.941885   -0.514564   -0.140084    0.182314   -0.424466
O    -0.675991   -0.053857    0.144865   -0.002124    0.136488   -0.002832
H    -1.215874    0.573363   -0.652108    0.027848   -1.784416    0.037038
6
* Frequency(6)  341.1200
H     1.218269    0.204244    0.824171    0.008918   -0.573160    0.011918
C     0.725841    0.013521   -0.126452    0.000252   -0.016378    0.000338
H     0.972930    0.824127   -0.817313    0.134034    0.204076    0.416446
H     1.080782   -0.933448   -0.534209   -0.140084    0.182314   -0.424466
O    -0.676090   -0.047540    0.144734   -0.002124    0.136488   -0.002832
H    -1.214585    0.490777   -0.650393    0.027848   -1.784416    0.037038
6
* Frequency(6)  341.1200
H     1.218965    0.159518    0.825101    0.008918   -0.573160    0.011918
C     0.725861    0.012243   -0.126426    0.000252   -0.016378    0.000338
H     0.983389    0.840052   -0.784816    0.134034    0.204076    0.416446
H     1.069850   -0.919221   -0.567332   -0.140084    0.182314   -0.424466
O    -0.676255   -0.036889    0.144513   -0.002124    0.136488   -0.002832
H    -1.212412    0.351532   -0.647503    0.027848   -1.784416    0.037038
6
* Frequency(6)  341.1200
H     1.219869    0.101440    0.826309    0.008918   -0.573160    0.011918
C     0.725886    0.010583   -0.126391    0.000252   -0.016378    0.000338
H     0.996971    0.860731   -0.742618    0.134034    0.204076    0.416446
H     1.055656   -0.900747   -0.610343   -0.140084    0.182314   -0.424466
O    -0.676471   -0.023059    0.144226   -0.002124    0.136488   -0.002832
H    -1.209590    0.170718   -0.643750    0.027848   -1.784416    0.037038
6
* Frequency(6)  341.1200
H     1.220882    0.036303    0.827663    0.008918   -0.573160    0.011918
C     0.725915    0.008722   -0.126353    0.000252   -0.016378    0.000338
H     1.012203    0.883923   -0.695291    0.134034    0.204076    0.416446
H     1.039736   -0.880028   -0.658581   -0.140084    0.182314   -0.424466
O    -0.676712   -0.007548    0.143904   -0.002124    0.136488   -0.002832
H    -1.206425   -0.032072   -0.639541    0.027848   -1.784416    0.037038
