6
* (null), Energy   -1000.0000000
H     1.220882    0.036303    0.827663    0.357082    0.000738   -0.232618
C     0.725915    0.008722   -0.126353    0.049032   -0.001654   -0.116198
H     1.012203    0.883923   -0.695291   -0.502348    0.831514    0.975092
H     1.039736   -0.880028   -0.658581   -0.476798   -0.805496    1.009160
O    -0.676712   -0.007548    0.143904    0.008704   -0.000410   -0.026278
H    -1.206425   -0.032072   -0.639541   -0.100324   -0.000524    0.050022
6
* Frequency(13) 1661.1300
H     1.261463    0.036387    0.801227    0.357082    0.000738   -0.232618
C     0.731487    0.008534   -0.139558    0.049032   -0.001654   -0.116198
H     0.955114    0.978420   -0.584477   -0.502348    0.831514    0.975092
H     0.985550   -0.971568   -0.543895   -0.476798   -0.805496    1.009160
O    -0.675723   -0.007595    0.140918    0.008704   -0.000410   -0.026278
H    -1.217826   -0.032132   -0.633856   -0.100324   -0.000524    0.050022
6
* Frequency(13) 1661.1300
H     1.297646    0.036462    0.777656    0.357082    0.000738   -0.232618
C     0.736456    0.008366   -0.151333    0.049032   -0.001654   -0.116198
H     0.904211    1.062677   -0.485671   -0.502348    0.831514    0.975092
H     0.937237   -1.053189   -0.441637   -0.476798   -0.805496    1.009160
O    -0.674841   -0.007636    0.138255    0.008704   -0.000410   -0.026278
H    -1.227992   -0.032185   -0.628788   -0.100324   -0.000524    0.050022
6
* Frequency(13) 1661.1300
H     1.325510    0.036519    0.759504    0.357082    0.000738   -0.232618
C     0.740282    0.008237   -0.160400    0.049032   -0.001654   -0.116198
H     0.865011    1.127563   -0.409581   -0.502348    0.831514    0.975092
H     0.900030   -1.116045   -0.362889   -0.476798   -0.805496    1.009160
O    -0.674162   -0.007668    0.136204    0.008704   -0.000410   -0.026278
H    -1.235821   -0.032226   -0.624884   -0.100324   -0.000524    0.050022
6
* Frequency(13) 1661.1300
H     1.342036    0.036553    0.748738    0.357082    0.000738   -0.232618
C     0.742551    0.008161   -0.165778    0.049032   -0.001654   -0.116198
H     0.841761    1.166047   -0.364452   -0.502348    0.831514    0.975092
H     0.877963   -1.153325   -0.316183   -0.476798   -0.805496    1.009160
O    -0.673759   -0.007687    0.134988    0.008704   -0.000410   -0.026278
H    -1.240464   -0.032250   -0.622569   -0.100324   -0.000524    0.050022
6
* Frequency(13) 1661.1300
H     1.345434    0.036560    0.746525    0.357082    0.000738   -0.232618
C     0.743018    0.008145   -0.166883    0.049032   -0.001654   -0.116198
H     0.836982    1.173959   -0.355174   -0.502348    0.831514    0.975092
H     0.873427   -1.160989   -0.306581   -0.476798   -0.805496    1.009160
O    -0.673676   -0.007691    0.134738    0.008704   -0.000410   -0.026278
H    -1.241418   -0.032255   -0.622093   -0.100324   -0.000524    0.050022
6
* Frequency(13) 1661.1300
H     1.335334    0.036540    0.753104    0.357082    0.000738   -0.232618
C     0.741631    0.008192   -0.163597    0.049032   -0.001654   -0.116198
H     0.851190    1.150440   -0.382754   -0.502348    0.831514    0.975092
H     0.886912   -1.138206   -0.335124   -0.476798   -0.805496    1.009160
O    -0.673922   -0.007679    0.135481    0.008704   -0.000410   -0.026278
H    -1.238581   -0.032240   -0.623508   -0.100324   -0.000524    0.050022
6
* Frequency(13) 1661.1300
H     1.312832    0.036493    0.767763    0.357082    0.000738   -0.232618
C     0.738541    0.008296   -0.156274    0.049032   -0.001654   -0.116198
H     0.882847    1.098041   -0.444202   -0.502348    0.831514    0.975092
H     0.916959   -1.087446   -0.398719   -0.476798   -0.805496    1.009160
O    -0.674471   -0.007654    0.137137    0.008704   -0.000410   -0.026278
H    -1.232259   -0.032207   -0.626660   -0.100324   -0.000524    0.050022
6
* Frequency(13) 1661.1300
H     1.280365    0.036426    0.788913    0.357082    0.000738   -0.232618
C     0.734083    0.008446   -0.145709    0.049032   -0.001654   -0.116198
H     0.928521    1.022438   -0.532859   -0.502348    0.831514    0.975092
H     0.960310   -1.014209   -0.490474   -0.476798   -0.805496    1.009160
O    -0.675262   -0.007616    0.139527    0.008704   -0.000410   -0.026278
H    -1.223137   -0.032159   -0.631208   -0.100324   -0.000524    0.050022
6
* Frequency(13) 1661.1300
H     1.241453    0.036346    0.814262    0.357082    0.000738   -0.232618
C     0.728740    0.008627   -0.133047    0.049032   -0.001654   -0.116198
H     0.983264    0.931825   -0.639118   -0.502348    0.831514    0.975092
H     1.012269   -0.926431   -0.600445   -0.476798   -0.805496    1.009160
O    -0.676211   -0.007572    0.142390    0.008704   -0.000410   -0.026278
H    -1.212204   -0.032102   -0.636659   -0.100324   -0.000524    0.050022
6
* Frequency(13) 1661.1300
H     1.200311    0.036260    0.841064    0.357082    0.000738   -0.232618
C     0.723090    0.008817   -0.119659    0.049032   -0.001654   -0.116198
H     1.041142    0.836021   -0.751464   -0.502348    0.831514    0.975092
H     1.067203   -0.833625   -0.716717   -0.476798   -0.805496    1.009160
O    -0.677213   -0.007524    0.145418    0.008704   -0.000410   -0.026278
H    -1.200646   -0.032042   -0.642423   -0.100324   -0.000524    0.050022
6
* Frequency(13) 1661.1300
H     1.161399    0.036180    0.866413    0.357082    0.000738   -0.232618
C     0.717747    0.008998   -0.106997    0.049032   -0.001654   -0.116198
H     1.095885    0.745408   -0.857723   -0.502348    0.831514    0.975092
H     1.119162   -0.745847   -0.826688   -0.476798   -0.805496    1.009160
O    -0.678162   -0.007480    0.148281    0.008704   -0.000410   -0.026278
H    -1.189713   -0.031985   -0.647874   -0.100324   -0.000524    0.050022
6
* Frequency(13) 1661.1300
H     1.128932    0.036113    0.887563    0.357082    0.000738   -0.232618
C     0.713289    0.009148   -0.096432    0.049032   -0.001654   -0.116198
H     1.141559    0.669805   -0.946380   -0.502348    0.831514    0.975092
H     1.162513   -0.672610   -0.918443   -0.476798   -0.805496    1.009160
O    -0.678953   -0.007442    0.150671    0.008704   -0.000410   -0.026278
H    -1.180591   -0.031937   -0.652422   -0.100324   -0.000524    0.050022
6
* Frequency(13) 1661.1300
H     1.106430    0.036066    0.902222    0.357082    0.000738   -0.232618
C     0.710199    0.009252   -0.089109    0.049032   -0.001654   -0.116198
H     1.173216    0.617406   -1.007828   -0.502348    0.831514    0.975092
H     1.192560   -0.621850   -0.982038   -0.476798   -0.805496    1.009160
O    -0.679502   -0.007417    0.152327    0.008704   -0.000410   -0.026278
H    -1.174269   -0.031904   -0.655574   -0.100324   -0.000524    0.050022
6
* Frequency(13) 1661.1300
H     1.096330    0.036046    0.908801    0.357082    0.000738   -0.232618
C     0.708812    0.009299   -0.085823    0.049032   -0.001654   -0.116198
H     1.187424    0.593887   -1.035408   -0.502348    0.831514    0.975092
H     1.206045   -0.599067   -1.010581   -0.476798   -0.805496    1.009160
O    -0.679748   -0.007405    0.153070    0.008704   -0.000410   -0.026278
H    -1.171432   -0.031889   -0.656989   -0.100324   -0.000524    0.050022
6
* Frequency(13) 1661.1300
H     1.099728    0.036053    0.906588    0.357082    0.000738   -0.232618
C     0.709279    0.009283   -0.086928    0.049032   -0.001654   -0.116198
H     1.182645    0.601799   -1.026130   -0.502348    0.831514    0.975092
H     1.201509   -0.606731   -1.000979   -0.476798   -0.805496    1.009160
O    -0.679665   -0.007409    0.152820    0.008704   -0.000410   -0.026278
H    -1.172386   -0.031894   -0.656513   -0.100324   -0.000524    0.050022
6
* Frequency(13) 1661.1300
H     1.116254    0.036087    0.895822    0.357082    0.000738   -0.232618
C     0.711548    0.009207   -0.092306    0.049032   -0.001654   -0.116198
H     1.159395    0.640283   -0.981001   -0.502348    0.831514    0.975092
H     1.179442   -0.644011   -0.954273   -0.476798   -0.805496    1.009160
O    -0.679262   -0.007428    0.151604    0.008704   -0.000410   -0.026278
H    -1.177029   -0.031918   -0.654198   -0.100324   -0.000524    0.050022
6
* Frequency(13) 1661.1300
H     1.144118    0.036144    0.877670    0.357082    0.000738   -0.232618
C     0.715374    0.009078   -0.101373    0.049032   -0.001654   -0.116198
H     1.120195    0.705169   -0.904911   -0.502348    0.831514    0.975092
H     1.142235   -0.706867   -0.875525   -0.476798   -0.805496    1.009160
O    -0.678583   -0.007460    0.149553    0.008704   -0.000410   -0.026278
H    -1.184858   -0.031959   -0.650294   -0.100324   -0.000524    0.050022
6
* Frequency(13) 1661.1300
H     1.180301    0.036219    0.854099    0.357082    0.000738   -0.232618
C     0.720343    0.008910   -0.113148    0.049032   -0.001654   -0.116198
H     1.069292    0.789426   -0.806105   -0.502348    0.831514    0.975092
H     1.093922   -0.788488   -0.773267   -0.476798   -0.805496    1.009160
O    -0.677701   -0.007501    0.146890    0.008704   -0.000410   -0.026278
H    -1.195024   -0.032012   -0.645226   -0.100324   -0.000524    0.050022
6
* Frequency(13) 1661.1300
H     1.220882    0.036303    0.827663    0.357082    0.000738   -0.232618
C     0.725915    0.008722   -0.126353    0.049032   -0.001654   -0.116198
H     1.012203    0.883923   -0.695291   -0.502348    0.831514    0.975092
H     1.039736   -0.880028   -0.658581   -0.476798   -0.805496    1.009160
O    -0.676712   -0.007548    0.143904    0.008704   -0.000410   -0.026278
H    -1.206425   -0.032072   -0.639541   -0.100324   -0.000524    0.050022
