6
* (null), Energy   -1000.0000000
H     1.220882    0.036303    0.827663    1.117004    0.003814   -0.658388
C     0.725915    0.008722   -0.126353   -0.212994   -0.003560   -0.011010
H     1.012203    0.883923   -0.695291    0.991156   -0.107138    0.376900
H     1.039736   -0.880028   -0.658581    0.986998    0.153600    0.371392
O    -0.676712   -0.007548    0.143904   -0.033666   -0.000464    0.002968
H    -1.206425   -0.032072   -0.639541   -0.022840   -0.000488   -0.005816
6
* Frequency(11) 1625.6500
H     1.347824    0.036736    0.752841    1.117004    0.003814   -0.658388
C     0.701709    0.008317   -0.127604   -0.212994   -0.003560   -0.011010
H     1.124843    0.871747   -0.652458    0.991156   -0.107138    0.376900
H     1.151903   -0.862572   -0.616374    0.986998    0.153600    0.371392
O    -0.680538   -0.007601    0.144241   -0.033666   -0.000464    0.002968
H    -1.209021   -0.032127   -0.640202   -0.022840   -0.000488   -0.005816
6
* Frequency(11) 1625.6500
H     1.461009    0.037123    0.686126    1.117004    0.003814   -0.658388
C     0.680127    0.007957   -0.128720   -0.212994   -0.003560   -0.011010
H     1.225276    0.860891   -0.614267    0.991156   -0.107138    0.376900
H     1.251915   -0.847008   -0.578741    0.986998    0.153600    0.371392
O    -0.683949   -0.007648    0.144542   -0.033666   -0.000464    0.002968
H    -1.211335   -0.032177   -0.640791   -0.022840   -0.000488   -0.005816
6
* Frequency(11) 1625.6500
H     1.548173    0.037421    0.634750    1.117004    0.003814   -0.658388
C     0.663506    0.007679   -0.129579   -0.212994   -0.003560   -0.011010
H     1.302620    0.852531   -0.584856    0.991156   -0.107138    0.376900
H     1.328935   -0.835022   -0.549760    0.986998    0.153600    0.371392
O    -0.686576   -0.007684    0.144774   -0.033666   -0.000464    0.002968
H    -1.213117   -0.032215   -0.641245   -0.022840   -0.000488   -0.005816
6
* Frequency(11) 1625.6500
H     1.599870    0.037597    0.604278    1.117004    0.003814   -0.658388
C     0.653648    0.007514   -0.130089   -0.212994   -0.003560   -0.011010
H     1.348492    0.847572   -0.567413    0.991156   -0.107138    0.376900
H     1.374615   -0.827913   -0.532571    0.986998    0.153600    0.371392
O    -0.688135   -0.007705    0.144911   -0.033666   -0.000464    0.002968
H    -1.214174   -0.032238   -0.641514   -0.022840   -0.000488   -0.005816
6
* Frequency(11) 1625.6500
H     1.610498    0.037633    0.598014    1.117004    0.003814   -0.658388
C     0.651622    0.007480   -0.130193   -0.212994   -0.003560   -0.011010
H     1.357923    0.846553   -0.563827    0.991156   -0.107138    0.376900
H     1.384005   -0.826452   -0.529038    0.986998    0.153600    0.371392
O    -0.688455   -0.007710    0.144939   -0.033666   -0.000464    0.002968
H    -1.214392   -0.032242   -0.641570   -0.022840   -0.000488   -0.005816
6
* Frequency(11) 1625.6500
H     1.578905    0.037525    0.616636    1.117004    0.003814   -0.658388
C     0.657646    0.007581   -0.129882   -0.212994   -0.003560   -0.011010
H     1.329889    0.849583   -0.574487    0.991156   -0.107138    0.376900
H     1.356089   -0.830796   -0.539542    0.986998    0.153600    0.371392
O    -0.687503   -0.007697    0.144855   -0.033666   -0.000464    0.002968
H    -1.213746   -0.032228   -0.641405   -0.022840   -0.000488   -0.005816
6
* Frequency(11) 1625.6500
H     1.508514    0.037285    0.658126    1.117004    0.003814   -0.658388
C     0.671068    0.007805   -0.129188   -0.212994   -0.003560   -0.011010
H     1.267429    0.856335   -0.598238    0.991156   -0.107138    0.376900
H     1.293891   -0.840475   -0.562946    0.986998    0.153600    0.371392
O    -0.685381   -0.007667    0.144668   -0.033666   -0.000464    0.002968
H    -1.212306   -0.032198   -0.641039   -0.022840   -0.000488   -0.005816
6
* Frequency(11) 1625.6500
H     1.406954    0.036938    0.717988    1.117004    0.003814   -0.658388
C     0.690434    0.008129   -0.128187   -0.212994   -0.003560   -0.011010
H     1.177311    0.866076   -0.632506    0.991156   -0.107138    0.376900
H     1.204152   -0.854441   -0.596714    0.986998    0.153600    0.371392
O    -0.682320   -0.007625    0.144398   -0.033666   -0.000464    0.002968
H    -1.210230   -0.032153   -0.640510   -0.022840   -0.000488   -0.005816
6
* Frequency(11) 1625.6500
H     1.285230    0.036523    0.789735    1.117004    0.003814   -0.658388
C     0.713645    0.008517   -0.126987   -0.212994   -0.003560   -0.011010
H     1.069302    0.877751   -0.673579    0.991156   -0.107138    0.376900
H     1.096595   -0.871179   -0.637186    0.986998    0.153600    0.371392
O    -0.678651   -0.007575    0.144075   -0.033666   -0.000464    0.002968
H    -1.207741   -0.032100   -0.639876   -0.022840   -0.000488   -0.005816
6
* Frequency(11) 1625.6500
H     1.156534    0.036083    0.865591    1.117004    0.003814   -0.658388
C     0.738185    0.008927   -0.125719   -0.212994   -0.003560   -0.011010
H     0.955104    0.890095   -0.717003    0.991156   -0.107138    0.376900
H     0.982877   -0.888877   -0.679976    0.986998    0.153600    0.371392
O    -0.674773   -0.007521    0.143733   -0.033666   -0.000464    0.002968
H    -1.205109   -0.032044   -0.639206   -0.022840   -0.000488   -0.005816
6
* Frequency(11) 1625.6500
H     1.034810    0.035668    0.937338    1.117004    0.003814   -0.658388
C     0.761396    0.009315   -0.124519   -0.212994   -0.003560   -0.011010
H     0.847095    0.901770   -0.758076    0.991156   -0.107138    0.376900
H     0.875320   -0.905615   -0.720448    0.986998    0.153600    0.371392
O    -0.671104   -0.007471    0.143410   -0.033666   -0.000464    0.002968
H    -1.202620   -0.031991   -0.638572   -0.022840   -0.000488   -0.005816
6
* Frequency(11) 1625.6500
H     0.933250    0.035321    0.997200    1.117004    0.003814   -0.658388
C     0.780762    0.009639   -0.123518   -0.212994   -0.003560   -0.011010
H     0.756977    0.911511   -0.792344    0.991156   -0.107138    0.376900
H     0.785581   -0.919581   -0.754216    0.986998    0.153600    0.371392
O    -0.668043   -0.007429    0.143140   -0.033666   -0.000464    0.002968
H    -1.200544   -0.031946   -0.638043   -0.022840   -0.000488   -0.005816
6
* Frequency(11) 1625.6500
H     0.862859    0.035081    1.038690    1.117004    0.003814   -0.658388
C     0.794184    0.009863   -0.122824   -0.212994   -0.003560   -0.011010
H     0.694517    0.918263   -0.816095    0.991156   -0.107138    0.376900
H     0.723383   -0.929260   -0.777620    0.986998    0.153600    0.371392
O    -0.665921   -0.007399    0.142953   -0.033666   -0.000464    0.002968
H    -1.199104   -0.031916   -0.637677   -0.022840   -0.000488   -0.005816
6
* Frequency(11) 1625.6500
H     0.831266    0.034973    1.057312    1.117004    0.003814   -0.658388
C     0.800208    0.009964   -0.122513   -0.212994   -0.003560   -0.011010
H     0.666483    0.921293   -0.826755    0.991156   -0.107138    0.376900
H     0.695467   -0.933604   -0.788124    0.986998    0.153600    0.371392
O    -0.664969   -0.007386    0.142869   -0.033666   -0.000464    0.002968
H    -1.198458   -0.031902   -0.637512   -0.022840   -0.000488   -0.005816
6
* Frequency(11) 1625.6500
H     0.841894    0.035009    1.051048    1.117004    0.003814   -0.658388
C     0.798182    0.009930   -0.122617   -0.212994   -0.003560   -0.011010
H     0.675914    0.920274   -0.823169    0.991156   -0.107138    0.376900
H     0.704857   -0.932143   -0.784591    0.986998    0.153600    0.371392
O    -0.665289   -0.007391    0.142897   -0.033666   -0.000464    0.002968
H    -1.198676   -0.031906   -0.637568   -0.022840   -0.000488   -0.005816
6
* Frequency(11) 1625.6500
H     0.893591    0.035185    1.020576    1.117004    0.003814   -0.658388
C     0.788324    0.009765   -0.123127   -0.212994   -0.003560   -0.011010
H     0.721786    0.915315   -0.805726    0.991156   -0.107138    0.376900
H     0.750537   -0.925034   -0.767402    0.986998    0.153600    0.371392
O    -0.666848   -0.007412    0.143034   -0.033666   -0.000464    0.002968
H    -1.199733   -0.031929   -0.637837   -0.022840   -0.000488   -0.005816
6
* Frequency(11) 1625.6500
H     0.980755    0.035483    0.969200    1.117004    0.003814   -0.658388
C     0.771703    0.009487   -0.123986   -0.212994   -0.003560   -0.011010
H     0.799130    0.906955   -0.776315    0.991156   -0.107138    0.376900
H     0.827557   -0.913048   -0.738421    0.986998    0.153600    0.371392
O    -0.669475   -0.007448    0.143266   -0.033666   -0.000464    0.002968
H    -1.201515   -0.031967   -0.638291   -0.022840   -0.000488   -0.005816
6
* Frequency(11) 1625.6500
H     1.093940    0.035870    0.902485    1.117004    0.003814   -0.658388
C     0.750121    0.009127   -0.125102   -0.212994   -0.003560   -0.011010
H     0.899563    0.896099   -0.738124    0.991156   -0.107138    0.376900
H     0.927569   -0.897484   -0.700788    0.986998    0.153600    0.371392
O    -0.672886   -0.007495    0.143567   -0.033666   -0.000464    0.002968
H    -1.203829   -0.032017   -0.638880   -0.022840   -0.000488   -0.005816
6
* Frequency(11) 1625.6500
H     1.220882    0.036303    0.827663    1.117004    0.003814   -0.658388
C     0.725915    0.008722   -0.126353   -0.212994   -0.003560   -0.011010
H     1.012203    0.883923   -0.695291    0.991156   -0.107138    0.376900
H     1.039736   -0.880028   -0.658581    0.986998    0.153600    0.371392
O    -0.676712   -0.007548    0.143904   -0.033666   -0.000464    0.002968
H    -1.206425   -0.032072   -0.639541   -0.022840   -0.000488   -0.005816
