6
* (null), Energy   -1000.0000000
H     1.220882    0.036303    0.827663    0.963300    0.010696   -0.209970
C     0.725915    0.008722   -0.126353    0.084882    0.006102    0.230208
H     1.012203    0.883923   -0.695291   -0.409336   -0.156436   -0.268068
H     1.039736   -0.880028   -0.658581   -0.413804    0.132324   -0.274132
O    -0.676712   -0.007548    0.143904    0.011768   -0.003448   -0.174958
H    -1.206425   -0.032072   -0.639541   -1.338370   -0.004588    0.786016
6
* Frequency(10) 1465.4800
H     1.330356    0.037519    0.803801    0.963300    0.010696   -0.209970
C     0.735561    0.009415   -0.100191    0.084882    0.006102    0.230208
H     0.965684    0.866145   -0.725756   -0.409336   -0.156436   -0.268068
H     0.992709   -0.864990   -0.689735   -0.413804    0.132324   -0.274132
O    -0.675375   -0.007940    0.124021    0.011768   -0.003448   -0.174958
H    -1.358524   -0.032593   -0.550214   -1.338370   -0.004588    0.786016
6
* Frequency(10) 1465.4800
H     1.427967    0.038602    0.782525    0.963300    0.010696   -0.209970
C     0.744162    0.010034   -0.076864    0.084882    0.006102    0.230208
H     0.924206    0.850293   -0.752919   -0.409336   -0.156436   -0.268068
H     0.950779   -0.851582   -0.717512   -0.413804    0.132324   -0.274132
O    -0.674182   -0.008289    0.106293    0.011768   -0.003448   -0.174958
H    -1.494140   -0.033058   -0.470568   -1.338370   -0.004588    0.786016
6
* Frequency(10) 1465.4800
H     1.503137    0.039437    0.766140    0.963300    0.010696   -0.209970
C     0.750786    0.010510   -0.058900    0.084882    0.006102    0.230208
H     0.892264    0.838086   -0.773837   -0.409336   -0.156436   -0.268068
H     0.918488   -0.841256   -0.738904   -0.413804    0.132324   -0.274132
O    -0.673264   -0.008558    0.092640    0.011768   -0.003448   -0.174958
H    -1.598578   -0.033416   -0.409232   -1.338370   -0.004588    0.786016
6
* Frequency(10) 1465.4800
H     1.547720    0.039932    0.756422    0.963300    0.010696   -0.209970
C     0.754715    0.010792   -0.048246    0.084882    0.006102    0.230208
H     0.873319    0.830846   -0.786244   -0.409336   -0.156436   -0.268068
H     0.899336   -0.835132   -0.751591   -0.413804    0.132324   -0.274132
O    -0.672719   -0.008718    0.084542    0.011768   -0.003448   -0.174958
H    -1.660521   -0.033629   -0.372854   -1.338370   -0.004588    0.786016
6
* Frequency(10) 1465.4800
H     1.556885    0.040034    0.754425    0.963300    0.010696   -0.209970
C     0.755522    0.010850   -0.046055    0.084882    0.006102    0.230208
H     0.869425    0.829357   -0.788794   -0.409336   -0.156436   -0.268068
H     0.895399   -0.833873   -0.754199   -0.413804    0.132324   -0.274132
O    -0.672607   -0.008751    0.082878    0.011768   -0.003448   -0.174958
H    -1.673255   -0.033672   -0.365375   -1.338370   -0.004588    0.786016
6
* Frequency(10) 1465.4800
H     1.529640    0.039731    0.760363    0.963300    0.010696   -0.209970
C     0.753121    0.010678   -0.052567    0.084882    0.006102    0.230208
H     0.881002    0.833782   -0.781212   -0.409336   -0.156436   -0.268068
H     0.907103   -0.837615   -0.746446   -0.413804    0.132324   -0.274132
O    -0.672940   -0.008653    0.087826    0.011768   -0.003448   -0.174958
H    -1.635400   -0.033543   -0.387607   -1.338370   -0.004588    0.786016
6
* Frequency(10) 1465.4800
H     1.468935    0.039057    0.773595    0.963300    0.010696   -0.209970
C     0.747772    0.010293   -0.067074    0.084882    0.006102    0.230208
H     0.906798    0.843640   -0.764319   -0.409336   -0.156436   -0.268068
H     0.933180   -0.845954   -0.729171   -0.413804    0.132324   -0.274132
O    -0.673682   -0.008436    0.098852    0.011768   -0.003448   -0.174958
H    -1.551060   -0.033253   -0.437139   -1.338370   -0.004588    0.786016
6
* Frequency(10) 1465.4800
H     1.381350    0.038085    0.792686    0.963300    0.010696   -0.209970
C     0.740055    0.009738   -0.088005    0.084882    0.006102    0.230208
H     0.944015    0.857864   -0.739946   -0.409336   -0.156436   -0.268068
H     0.970804   -0.857985   -0.704246   -0.413804    0.132324   -0.274132
O    -0.674752   -0.008122    0.114759    0.011768   -0.003448   -0.174958
H    -1.429373   -0.032836   -0.508605   -1.338370   -0.004588    0.786016
6
* Frequency(10) 1465.4800
H     1.276376    0.036919    0.815567    0.963300    0.010696   -0.209970
C     0.730805    0.009074   -0.113091    0.084882    0.006102    0.230208
H     0.988622    0.874911   -0.710734   -0.409336   -0.156436   -0.268068
H     1.015898   -0.872405   -0.674373   -0.413804    0.132324   -0.274132
O    -0.676034   -0.007747    0.133825    0.011768   -0.003448   -0.174958
H    -1.283526   -0.032336   -0.594260   -1.338370   -0.004588    0.786016
6
* Frequency(10) 1465.4800
H     1.165388    0.035687    0.839759    0.963300    0.010696   -0.209970
C     0.721025    0.008370   -0.139615    0.084882    0.006102    0.230208
H     1.035784    0.892935   -0.679848   -0.409336   -0.156436   -0.268068
H     1.063574   -0.887651   -0.642789   -0.413804    0.132324   -0.274132
O    -0.677390   -0.007349    0.153983    0.011768   -0.003448   -0.174958
H    -1.129324   -0.031808   -0.684822   -1.338370   -0.004588    0.786016
6
* Frequency(10) 1465.4800
H     1.060414    0.034521    0.862640    0.963300    0.010696   -0.209970
C     0.711775    0.007706   -0.164701    0.084882    0.006102    0.230208
H     1.080391    0.909982   -0.650636   -0.409336   -0.156436   -0.268068
H     1.108668   -0.902071   -0.612916   -0.413804    0.132324   -0.274132
O    -0.678672   -0.006974    0.173049    0.011768   -0.003448   -0.174958
H    -0.983477   -0.031308   -0.770477   -1.338370   -0.004588    0.786016
6
* Frequency(10) 1465.4800
H     0.972829    0.033549    0.881731    0.963300    0.010696   -0.209970
C     0.704058    0.007151   -0.185632    0.084882    0.006102    0.230208
H     1.117608    0.924206   -0.626263   -0.409336   -0.156436   -0.268068
H     1.146292   -0.914102   -0.587991   -0.413804    0.132324   -0.274132
O    -0.679742   -0.006660    0.188956    0.011768   -0.003448   -0.174958
H    -0.861790   -0.030891   -0.841943   -1.338370   -0.004588    0.786016
6
* Frequency(10) 1465.4800
H     0.912124    0.032875    0.894963    0.963300    0.010696   -0.209970
C     0.698709    0.006766   -0.200139    0.084882    0.006102    0.230208
H     1.143404    0.934064   -0.609370   -0.409336   -0.156436   -0.268068
H     1.172369   -0.922441   -0.570716   -0.413804    0.132324   -0.274132
O    -0.680484   -0.006443    0.199982    0.011768   -0.003448   -0.174958
H    -0.777450   -0.030601   -0.891475   -1.338370   -0.004588    0.786016
6
* Frequency(10) 1465.4800
H     0.884879    0.032572    0.900901    0.963300    0.010696   -0.209970
C     0.696308    0.006594   -0.206651    0.084882    0.006102    0.230208
H     1.154981    0.938489   -0.601788   -0.409336   -0.156436   -0.268068
H     1.184073   -0.926183   -0.562963   -0.413804    0.132324   -0.274132
O    -0.680817   -0.006345    0.204930    0.011768   -0.003448   -0.174958
H    -0.739595   -0.030472   -0.913707   -1.338370   -0.004588    0.786016
6
* Frequency(10) 1465.4800
H     0.894044    0.032674    0.898904    0.963300    0.010696   -0.209970
C     0.697115    0.006652   -0.204460    0.084882    0.006102    0.230208
H     1.151087    0.937000   -0.604338   -0.409336   -0.156436   -0.268068
H     1.180136   -0.924924   -0.565571   -0.413804    0.132324   -0.274132
O    -0.680705   -0.006378    0.203266    0.011768   -0.003448   -0.174958
H    -0.752329   -0.030515   -0.906228   -1.338370   -0.004588    0.786016
6
* Frequency(10) 1465.4800
H     0.938627    0.033169    0.889186    0.963300    0.010696   -0.209970
C     0.701044    0.006934   -0.193806    0.084882    0.006102    0.230208
H     1.132142    0.929760   -0.616745   -0.409336   -0.156436   -0.268068
H     1.160984   -0.918800   -0.578258   -0.413804    0.132324   -0.274132
O    -0.680160   -0.006538    0.195168    0.011768   -0.003448   -0.174958
H    -0.814272   -0.030728   -0.869850   -1.338370   -0.004588    0.786016
6
* Frequency(10) 1465.4800
H     1.013797    0.034004    0.872801    0.963300    0.010696   -0.209970
C     0.707668    0.007410   -0.175842    0.084882    0.006102    0.230208
H     1.100200    0.917553   -0.637663   -0.409336   -0.156436   -0.268068
H     1.128693   -0.908474   -0.599650   -0.413804    0.132324   -0.274132
O    -0.679242   -0.006807    0.181515    0.011768   -0.003448   -0.174958
H    -0.918710   -0.031086   -0.808514   -1.338370   -0.004588    0.786016
6
* Frequency(10) 1465.4800
H     1.111408    0.035087    0.851525    0.963300    0.010696   -0.209970
C     0.716269    0.008029   -0.152515    0.084882    0.006102    0.230208
H     1.058722    0.901701   -0.664826   -0.409336   -0.156436   -0.268068
H     1.086763   -0.895066   -0.627427   -0.413804    0.132324   -0.274132
O    -0.678049   -0.007156    0.163787    0.011768   -0.003448   -0.174958
H    -1.054326   -0.031551   -0.728868   -1.338370   -0.004588    0.786016
6
* Frequency(10) 1465.4800
H     1.220882    0.036303    0.827663    0.963300    0.010696   -0.209970
C     0.725915    0.008722   -0.126353    0.084882    0.006102    0.230208
H     1.012203    0.883923   -0.695291   -0.409336   -0.156436   -0.268068
H     1.039736   -0.880028   -0.658581   -0.413804    0.132324   -0.274132
O    -0.676712   -0.007548    0.143904    0.011768   -0.003448   -0.174958
H    -1.206425   -0.032072   -0.639541   -1.338370   -0.004588    0.786016
