6
* (null), Energy   -1000.0000000
H     1.220882    0.036303    0.827663    0.000000    0.000000    0.000000
C     0.725915    0.008722   -0.126353    0.000000    0.000000    0.000000
H     1.012203    0.883923   -0.695291    0.000000    0.000000    0.000000
H     1.039736   -0.880028   -0.658581    0.000000    0.000000    0.000000
O    -0.676712   -0.007548    0.143904    0.000000    0.000000    0.000000
H    -1.206425   -0.032072   -0.639541    0.000000    0.000000    0.000000
6
* Frequency(1)    0.0000
H     1.220882    0.036303    0.827663    0.000000    0.000000    0.000000
C     0.725915    0.008722   -0.126353    0.000000    0.000000    0.000000
H     1.012203    0.883923   -0.695291    0.000000    0.000000    0.000000
H     1.039736   -0.880028   -0.658581    0.000000    0.000000    0.000000
O    -0.676712   -0.007548    0.143904    0.000000    0.000000    0.000000
H    -1.206425   -0.032072   -0.639541    0.000000    0.000000    0.000000
6
* Frequency(1)    0.0000
H     1.220882    0.036303    0.827663    0.000000    0.000000    0.000000
C     0.725915    0.008722   -0.126353    0.000000    0.000000    0.000000
H     1.012203    0.883923   -0.695291    0.000000    0.000000    0.000000
H     1.039736   -0.880028   -0.658581    0.000000    0.000000    0.000000
O    -0.676712   -0.007548    0.143904    0.000000    0.000000    0.000000
H    -1.206425   -0.032072   -0.639541    0.000000    0.000000    0.000000
6
* Frequency(1)    0.0000
H     1.220882    0.036303    0.827663    0.000000    0.000000    0.000000
C     0.725915    0.008722   -0.126353    0.000000    0.000000    0.000000
H     1.012203    0.883923   -0.695291    0.000000    0.000000    0.000000
H     1.039736   -0.880028   -0.658581    0.000000    0.000000    0.000000
O    -0.676712   -0.007548    0.143904    0.000000    0.000000    0.000000
H    -1.206425   -0.032072   -0.639541    0.000000    0.000000    0.000000
6
* Frequency(1)    0.0000
H     1.220882    0.036303    0.827663    0.000000    0.000000    0.000000
C     0.725915    0.008722   -0.126353    0.000000    0.000000    0.000000
H     1.012203    0.883923   -0.695291    0.000000    0.000000    0.000000
H     1.039736   -0.880028   -0.658581    0.000000    0.000000    0.000000
O    -0.676712   -0.007548    0.143904    0.000000    0.000000    0.000000
H    -1.206425   -0.032072   -0.639541    0.000000    0.000000    0.000000
6
* Frequency(1)    0.0000
H     1.220882    0.036303    0.827663    0.000000    0.000000    0.000000
C     0.725915    0.008722   -0.126353    0.000000    0.000000    0.000000
H     1.012203    0.883923   -0.695291    0.000000    0.000000    0.000000
H     1.039736   -0.880028   -0.658581    0.000000    0.000000    0.000000
O    -0.676712   -0.007548    0.143904    0.000000    0.000000    0.000000
H    -1.206425   -0.032072   -0.639541    0.000000    0.000000    0.000000
6
* Frequency(1)    0.0000
H     1.220882    0.036303    0.827663    0.000000    0.000000    0.000000
C     0.725915    0.008722   -0.126353    0.000000    0.000000    0.000000
H     1.012203    0.883923   -0.695291    0.000000    0.000000    0.000000
H     1.039736   -0.880028   -0.658581    0.000000    0.000000    0.000000
O    -0.676712   -0.007548    0.143904    0.000000    0.000000    0.000000
H    -1.206425   -0.032072   -0.639541    0.000000    0.000000    0.000000
6
* Frequency(1)    0.0000
H     1.220882    0.036303    0.827663    0.000000    0.000000    0.000000
C     0.725915    0.008722   -0.126353    0.000000    0.000000    0.000000
H     1.012203    0.883923   -0.695291    0.000000    0.000000    0.000000
H     1.039736   -0.880028   -0.658581    0.000000    0.000000    0.000000
O    -0.676712   -0.007548    0.143904    0.000000    0.000000    0.000000
H    -1.206425   -0.032072   -0.639541    0.000000    0.000000    0.000000
6
* Frequency(1)    0.0000
H     1.220882    0.036303    0.827663    0.000000    0.000000    0.000000
C     0.725915    0.008722   -0.126353    0.000000    0.000000    0.000000
H     1.012203    0.883923   -0.695291    0.000000    0.000000    0.000000
H     1.039736   -0.880028   -0.658581    0.000000    0.000000    0.000000
O    -0.676712   -0.007548    0.143904    0.000000    0.000000    0.000000
H    -1.206425   -0.032072   -0.639541    0.000000    0.000000    0.000000
6
* Frequency(1)    0.0000
H     1.220882    0.036303    0.827663    0.000000    0.000000    0.000000
C     0.725915    0.008722   -0.126353    0.000000    0.000000    0.000000
H     1.012203    0.883923   -0.695291    0.000000    0.000000    0.000000
H     1.039736   -0.880028   -0.658581    0.000000    0.000000    0.000000
O    -0.676712   -0.007548    0.143904    0.000000    0.000000    0.000000
H    -1.206425   -0.032072   -0.639541    0.000000    0.000000    0.000000
6
* Frequency(1)    0.0000
H     1.220882    0.036303    0.827663    0.000000    0.000000    0.000000
C     0.725915    0.008722   -0.126353    0.000000    0.000000    0.000000
H     1.012203    0.883923   -0.695291    0.000000    0.000000    0.000000
H     1.039736   -0.880028   -0.658581    0.000000    0.000000    0.000000
O    -0.676712   -0.007548    0.143904    0.000000    0.000000    0.000000
H    -1.206425   -0.032072   -0.639541    0.000000    0.000000    0.000000
6
* Frequency(1)    0.0000
H     1.220882    0.036303    0.827663    0.000000    0.000000    0.000000
C     0.725915    0.008722   -0.126353    0.000000    0.000000    0.000000
H     1.012203    0.883923   -0.695291    0.000000    0.000000    0.000000
H     1.039736   -0.880028   -0.658581    0.000000    0.000000    0.000000
O    -0.676712   -0.007548    0.143904    0.000000    0.000000    0.000000
H    -1.206425   -0.032072   -0.639541    0.000000    0.000000    0.000000
6
* Frequency(1)    0.0000
H     1.220882    0.036303    0.827663    0.000000    0.000000    0.000000
C     0.725915    0.008722   -0.126353    0.000000    0.000000    0.000000
H     1.012203    0.883923   -0.695291    0.000000    0.000000    0.000000
H     1.039736   -0.880028   -0.658581    0.000000    0.000000    0.000000
O    -0.676712   -0.007548    0.143904    0.000000    0.000000    0.000000
H    -1.206425   -0.032072   -0.639541    0.000000    0.000000    0.000000
6
* Frequency(1)    0.0000
H     1.220882    0.036303    0.827663    0.000000    0.000000    0.000000
C     0.725915    0.008722   -0.126353    0.000000    0.000000    0.000000
H     1.012203    0.883923   -0.695291    0.000000    0.000000    0.000000
H     1.039736   -0.880028   -0.658581    0.000000    0.000000    0.000000
O    -0.676712   -0.007548    0.143904    0.000000    0.000000    0.000000
H    -1.206425   -0.032072   -0.639541    0.000000    0.000000    0.000000
6
* Frequency(1)    0.0000
H     1.220882    0.036303    0.827663    0.000000    0.000000    0.000000
C     0.725915    0.008722   -0.126353    0.000000    0.000000    0.000000
H     1.012203    0.883923   -0.695291    0.000000    0.000000    0.000000
H     1.039736   -0.880028   -0.658581    0.000000    0.000000    0.000000
O    -0.676712   -0.007548    0.143904    0.000000    0.000000    0.000000
H    -1.206425   -0.032072   -0.639541    0.000000    0.000000    0.000000
6
* Frequency(1)    0.0000
H     1.220882    0.036303    0.827663    0.000000    0.000000    0.000000
C     0.725915    0.008722   -0.126353    0.000000    0.000000    0.000000
H     1.012203    0.883923   -0.695291    0.000000    0.000000    0.000000
H     1.039736   -0.880028   -0.658581    0.000000    0.000000    0.000000
O    -0.676712   -0.007548    0.143904    0.000000    0.000000    0.000000
H    -1.206425   -0.032072   -0.639541    0.000000    0.000000    0.000000
6
* Frequency(1)    0.0000
H     1.220882    0.036303    0.827663    0.000000    0.000000    0.000000
C     0.725915    0.008722   -0.126353    0.000000    0.000000    0.000000
H     1.012203    0.883923   -0.695291    0.000000    0.000000    0.000000
H     1.039736   -0.880028   -0.658581    0.000000    0.000000    0.000000
O    -0.676712   -0.007548    0.143904    0.000000    0.000000    0.000000
H    -1.206425   -0.032072   -0.639541    0.000000    0.000000    0.000000
6
* Frequency(1)    0.0000
H     1.220882    0.036303    0.827663    0.000000    0.000000    0.000000
C     0.725915    0.008722   -0.126353    0.000000    0.000000    0.000000
H     1.012203    0.883923   -0.695291    0.000000    0.000000    0.000000
H     1.039736   -0.880028   -0.658581    0.000000    0.000000    0.000000
O    -0.676712   -0.007548    0.143904    0.000000    0.000000    0.000000
H    -1.206425   -0.032072   -0.639541    0.000000    0.000000    0.000000
6
* Frequency(1)    0.0000
H     1.220882    0.036303    0.827663    0.000000    0.000000    0.000000
C     0.725915    0.008722   -0.126353    0.000000    0.000000    0.000000
H     1.012203    0.883923   -0.695291    0.000000    0.000000    0.000000
H     1.039736   -0.880028   -0.658581    0.000000    0.000000    0.000000
O    -0.676712   -0.007548    0.143904    0.000000    0.000000    0.000000
H    -1.206425   -0.032072   -0.639541    0.000000    0.000000    0.000000
6
* Frequency(1)    0.0000
H     1.220882    0.036303    0.827663    0.000000    0.000000    0.000000
C     0.725915    0.008722   -0.126353    0.000000    0.000000    0.000000
H     1.012203    0.883923   -0.695291    0.000000    0.000000    0.000000
H     1.039736   -0.880028   -0.658581    0.000000    0.000000    0.000000
O    -0.676712   -0.007548    0.143904    0.000000    0.000000    0.000000
H    -1.206425   -0.032072   -0.639541    0.000000    0.000000    0.000000
