6
* (null), Energy   -1000.0000000
H     1.220882    0.036303    0.827663   -0.000850    0.059622   -0.001072
C     0.725915    0.008722   -0.126353   -0.002938    0.187168   -0.003890
H     1.012203    0.883923   -0.695291   -0.346650   -1.129934    0.763602
H     1.039736   -0.880028   -0.658581    0.382352   -1.149758   -0.716394
O    -0.676712   -0.007548    0.143904    0.000014   -0.000958    0.000020
H    -1.206425   -0.032072   -0.639541   -0.000076    0.005056   -0.000104
6
* Frequency(15) 3210.8300
H     1.220785    0.043079    0.827541   -0.000850    0.059622   -0.001072
C     0.725581    0.029993   -0.126795   -0.002938    0.187168   -0.003890
H     0.972808    0.755512   -0.608512   -0.346650   -1.129934    0.763602
H     1.083188   -1.010692   -0.739995    0.382352   -1.149758   -0.716394
O    -0.676710   -0.007657    0.143906    0.000014   -0.000958    0.000020
H    -1.206434   -0.031497   -0.639553   -0.000076    0.005056   -0.000104
6
* Frequency(15) 3210.8300
H     1.220699    0.049120    0.827433   -0.000850    0.059622   -0.001072
C     0.725283    0.048958   -0.127189   -0.002938    0.187168   -0.003890
H     0.937682    0.641016   -0.531136   -0.346650   -1.129934    0.763602
H     1.121932   -1.127197   -0.812587    0.382352   -1.149758   -0.716394
O    -0.676709   -0.007754    0.143908    0.000014   -0.000958    0.000020
H    -1.206441   -0.030985   -0.639563   -0.000076    0.005056   -0.000104
6
* Frequency(15) 3210.8300
H     1.220633    0.053773    0.827349   -0.000850    0.059622   -0.001072
C     0.725054    0.063564   -0.127493   -0.002938    0.187168   -0.003890
H     0.910632    0.552843   -0.471549   -0.346650   -1.129934    0.763602
H     1.151768   -1.216917   -0.868490    0.382352   -1.149758   -0.716394
O    -0.676708   -0.007829    0.143910    0.000014   -0.000958    0.000020
H    -1.206447   -0.030591   -0.639571   -0.000076    0.005056   -0.000104
6
* Frequency(15) 3210.8300
H     1.220594    0.056532    0.827299   -0.000850    0.059622   -0.001072
C     0.724918    0.072226   -0.127673   -0.002938    0.187168   -0.003890
H     0.894588    0.500548   -0.436208   -0.346650   -1.129934    0.763602
H     1.169464   -1.270129   -0.901646    0.382352   -1.149758   -0.716394
O    -0.676707   -0.007873    0.143911    0.000014   -0.000958    0.000020
H    -1.206451   -0.030357   -0.639576   -0.000076    0.005056   -0.000104
6
* Frequency(15) 3210.8300
H     1.220586    0.057099    0.827289   -0.000850    0.059622   -0.001072
C     0.724890    0.074007   -0.127710   -0.002938    0.187168   -0.003890
H     0.891290    0.489797   -0.428943   -0.346650   -1.129934    0.763602
H     1.173102   -1.281069   -0.908463    0.382352   -1.149758   -0.716394
O    -0.676707   -0.007882    0.143911    0.000014   -0.000958    0.000020
H    -1.206452   -0.030308   -0.639577   -0.000076    0.005056   -0.000104
6
* Frequency(15) 3210.8300
H     1.220610    0.055413    0.827319   -0.000850    0.059622   -0.001072
C     0.724973    0.068713   -0.127600   -0.002938    0.187168   -0.003890
H     0.901095    0.521756   -0.450541   -0.346650   -1.129934    0.763602
H     1.162288   -1.248549   -0.888200    0.382352   -1.149758   -0.716394
O    -0.676708   -0.007855    0.143910    0.000014   -0.000958    0.000020
H    -1.206449   -0.030451   -0.639574   -0.000076    0.005056   -0.000104
6
* Frequency(15) 3210.8300
H     1.220663    0.051656    0.827387   -0.000850    0.059622   -0.001072
C     0.725158    0.056918   -0.127355   -0.002938    0.187168   -0.003890
H     0.922939    0.592961   -0.498661   -0.346650   -1.129934    0.763602
H     1.138193   -1.176095   -0.843055    0.382352   -1.149758   -0.716394
O    -0.676708   -0.007795    0.143909    0.000014   -0.000958    0.000020
H    -1.206445   -0.030770   -0.639568   -0.000076    0.005056   -0.000104
6
* Frequency(15) 3210.8300
H     1.220740    0.046235    0.827484   -0.000850    0.059622   -0.001072
C     0.725426    0.039901   -0.127001   -0.002938    0.187168   -0.003890
H     0.954457    0.695697   -0.568089   -0.346650   -1.129934    0.763602
H     1.103429   -1.071557   -0.777919    0.382352   -1.149758   -0.716394
O    -0.676710   -0.007708    0.143907    0.000014   -0.000958    0.000020
H    -1.206438   -0.031230   -0.639558   -0.000076    0.005056   -0.000104
6
* Frequency(15) 3210.8300
H     1.220833    0.039738    0.827601   -0.000850    0.059622   -0.001072
C     0.725746    0.019504   -0.126577   -0.002938    0.187168   -0.003890
H     0.992233    0.818830   -0.651301   -0.346650   -1.129934    0.763602
H     1.061763   -0.946263   -0.699851    0.382352   -1.149758   -0.716394
O    -0.676711   -0.007603    0.143905    0.000014   -0.000958    0.000020
H    -1.206429   -0.031781   -0.639547   -0.000076    0.005056   -0.000104
6
* Frequency(15) 3210.8300
H     1.220931    0.032868    0.827725   -0.000850    0.059622   -0.001072
C     0.726084   -0.002060   -0.126129   -0.002938    0.187168   -0.003890
H     1.032173    0.949016   -0.739281   -0.346650   -1.129934    0.763602
H     1.017709   -0.813793   -0.617311    0.382352   -1.149758   -0.716394
O    -0.676713   -0.007493    0.143903    0.000014   -0.000958    0.000020
H    -1.206421   -0.032363   -0.639535   -0.000076    0.005056   -0.000104
6
* Frequency(15) 3210.8300
H     1.221024    0.026371    0.827842   -0.000850    0.059622   -0.001072
C     0.726404   -0.022457   -0.125705   -0.002938    0.187168   -0.003890
H     1.069949    1.072149   -0.822493   -0.346650   -1.129934    0.763602
H     0.976043   -0.688499   -0.539243    0.382352   -1.149758   -0.716394
O    -0.676714   -0.007388    0.143901    0.000014   -0.000958    0.000020
H    -1.206412   -0.032914   -0.639524   -0.000076    0.005056   -0.000104
6
* Frequency(15) 3210.8300
H     1.221101    0.020950    0.827939   -0.000850    0.059622   -0.001072
C     0.726672   -0.039474   -0.125351   -0.002938    0.187168   -0.003890
H     1.101467    1.174885   -0.891921   -0.346650   -1.129934    0.763602
H     0.941279   -0.583961   -0.474107    0.382352   -1.149758   -0.716394
O    -0.676716   -0.007301    0.143899    0.000014   -0.000958    0.000020
H    -1.206405   -0.033374   -0.639514   -0.000076    0.005056   -0.000104
6
* Frequency(15) 3210.8300
H     1.221154    0.017193    0.828007   -0.000850    0.059622   -0.001072
C     0.726857   -0.051269   -0.125106   -0.002938    0.187168   -0.003890
H     1.123311    1.246090   -0.940041   -0.346650   -1.129934    0.763602
H     0.917184   -0.511507   -0.428962    0.382352   -1.149758   -0.716394
O    -0.676716   -0.007241    0.143898    0.000014   -0.000958    0.000020
H    -1.206401   -0.033693   -0.639508   -0.000076    0.005056   -0.000104
6
* Frequency(15) 3210.8300
H     1.221178    0.015507    0.828037   -0.000850    0.059622   -0.001072
C     0.726940   -0.056563   -0.124996   -0.002938    0.187168   -0.003890
H     1.133116    1.278049   -0.961639   -0.346650   -1.129934    0.763602
H     0.906370   -0.478987   -0.408699    0.382352   -1.149758   -0.716394
O    -0.676717   -0.007214    0.143897    0.000014   -0.000958    0.000020
H    -1.206398   -0.033836   -0.639505   -0.000076    0.005056   -0.000104
6
* Frequency(15) 3210.8300
H     1.221170    0.016074    0.828027   -0.000850    0.059622   -0.001072
C     0.726912   -0.054782   -0.125033   -0.002938    0.187168   -0.003890
H     1.129818    1.267298   -0.954374   -0.346650   -1.129934    0.763602
H     0.910008   -0.489927   -0.415516    0.382352   -1.149758   -0.716394
O    -0.676717   -0.007223    0.143897    0.000014   -0.000958    0.000020
H    -1.206399   -0.033787   -0.639506   -0.000076    0.005056   -0.000104
6
* Frequency(15) 3210.8300
H     1.221131    0.018833    0.827977   -0.000850    0.059622   -0.001072
C     0.726776   -0.046120   -0.125213   -0.002938    0.187168   -0.003890
H     1.113774    1.215003   -0.919033   -0.346650   -1.129934    0.763602
H     0.927704   -0.543139   -0.448672    0.382352   -1.149758   -0.716394
O    -0.676716   -0.007267    0.143898    0.000014   -0.000958    0.000020
H    -1.206403   -0.033553   -0.639511   -0.000076    0.005056   -0.000104
6
* Frequency(15) 3210.8300
H     1.221065    0.023486    0.827893   -0.000850    0.059622   -0.001072
C     0.726547   -0.031514   -0.125517   -0.002938    0.187168   -0.003890
H     1.086724    1.126830   -0.859446   -0.346650   -1.129934    0.763602
H     0.957540   -0.632859   -0.504575    0.382352   -1.149758   -0.716394
O    -0.676715   -0.007342    0.143900    0.000014   -0.000958    0.000020
H    -1.206409   -0.033159   -0.639519   -0.000076    0.005056   -0.000104
6
* Frequency(15) 3210.8300
H     1.220979    0.029527    0.827785   -0.000850    0.059622   -0.001072
C     0.726249   -0.012549   -0.125911   -0.002938    0.187168   -0.003890
H     1.051598    1.012334   -0.782070   -0.346650   -1.129934    0.763602
H     0.996284   -0.749364   -0.577167    0.382352   -1.149758   -0.716394
O    -0.676714   -0.007439    0.143902    0.000014   -0.000958    0.000020
H    -1.206416   -0.032647   -0.639529   -0.000076    0.005056   -0.000104
6
* Frequency(15) 3210.8300
H     1.220882    0.036303    0.827663   -0.000850    0.059622   -0.001072
C     0.725915    0.008722   -0.126353   -0.002938    0.187168   -0.003890
H     1.012203    0.883923   -0.695291   -0.346650   -1.129934    0.763602
H     1.039736   -0.880028   -0.658581    0.382352   -1.149758   -0.716394
O    -0.676712   -0.007548    0.143904    0.000014   -0.000958    0.000020
H    -1.206425   -0.032072   -0.639541   -0.000076    0.005056   -0.000104
