6
* (null), Energy   -1000.0000000
H     1.220882    0.036303    0.827663   -0.022968    1.466882   -0.030486
C     0.725915    0.008722   -0.126353    0.001994   -0.126736    0.002634
H     1.012203    0.883923   -0.695291    0.657726    0.167342    0.674036
H     1.039736   -0.880028   -0.658581   -0.662276    0.118558   -0.680018
O    -0.676712   -0.007548    0.143904    0.000212   -0.013856    0.000292
H    -1.206425   -0.032072   -0.639541    0.000382   -0.022720    0.000468
6
* Frequency(12) 1652.2400
H     1.218272    0.203007    0.824198   -0.022968    1.466882   -0.030486
C     0.726142   -0.005681   -0.126054    0.001994   -0.126736    0.002634
H     1.086950    0.902941   -0.618690    0.657726    0.167342    0.674036
H     0.964472   -0.866554   -0.735862   -0.662276    0.118558   -0.680018
O    -0.676688   -0.009123    0.143937    0.000212   -0.013856    0.000292
H    -1.206382   -0.034654   -0.639488    0.000382   -0.022720    0.000468
6
* Frequency(12) 1652.2400
H     1.215944    0.351645    0.821109   -0.022968    1.466882   -0.030486
C     0.726344   -0.018523   -0.125787    0.001994   -0.126736    0.002634
H     1.153597    0.919897   -0.550390    0.657726    0.167342    0.674036
H     0.897364   -0.854541   -0.804767   -0.662276    0.118558   -0.680018
O    -0.676666   -0.010527    0.143967    0.000212   -0.013856    0.000292
H    -1.206343   -0.036956   -0.639440    0.000382   -0.022720    0.000468
6
* Frequency(12) 1652.2400
H     1.214152    0.466112    0.818730   -0.022968    1.466882   -0.030486
C     0.726499   -0.028413   -0.125581    0.001994   -0.126736    0.002634
H     1.204922    0.932956   -0.497793    0.657726    0.167342    0.674036
H     0.845684   -0.845290   -0.857832   -0.662276    0.118558   -0.680018
O    -0.676650   -0.011608    0.143990    0.000212   -0.013856    0.000292
H    -1.206313   -0.038729   -0.639404    0.000382   -0.022720    0.000468
6
* Frequency(12) 1652.2400
H     1.213089    0.534002    0.817319   -0.022968    1.466882   -0.030486
C     0.726592   -0.034278   -0.125459    0.001994   -0.126736    0.002634
H     1.235363    0.940700   -0.466597    0.657726    0.167342    0.674036
H     0.815032   -0.839802   -0.889304   -0.662276    0.118558   -0.680018
O    -0.676640   -0.012249    0.144003    0.000212   -0.013856    0.000292
H    -1.206295   -0.039781   -0.639382    0.000382   -0.022720    0.000468
6
* Frequency(12) 1652.2400
H     1.212871    0.547958    0.817029   -0.022968    1.466882   -0.030486
C     0.726611   -0.035484   -0.125434    0.001994   -0.126736    0.002634
H     1.241621    0.942293   -0.460184    0.657726    0.167342    0.674036
H     0.808731   -0.838674   -0.895774   -0.662276    0.118558   -0.680018
O    -0.676638   -0.012381    0.144006    0.000212   -0.013856    0.000292
H    -1.206292   -0.039997   -0.639378    0.000382   -0.022720    0.000468
6
* Frequency(12) 1652.2400
H     1.213520    0.506469    0.817892   -0.022968    1.466882   -0.030486
C     0.726554   -0.031900   -0.125509    0.001994   -0.126736    0.002634
H     1.223018    0.937560   -0.479249    0.657726    0.167342    0.674036
H     0.827463   -0.842028   -0.876541   -0.662276    0.118558   -0.680018
O    -0.676644   -0.011989    0.143998    0.000212   -0.013856    0.000292
H    -1.206303   -0.039354   -0.639391    0.000382   -0.022720    0.000468
6
* Frequency(12) 1652.2400
H     1.214968    0.414030    0.819813   -0.022968    1.466882   -0.030486
C     0.726428   -0.023913   -0.125675    0.001994   -0.126736    0.002634
H     1.181570    0.927014   -0.521724    0.657726    0.167342    0.674036
H     0.869198   -0.849499   -0.833688   -0.662276    0.118558   -0.680018
O    -0.676657   -0.011116    0.143979    0.000212   -0.013856    0.000292
H    -1.206327   -0.037922   -0.639420    0.000382   -0.022720    0.000468
6
* Frequency(12) 1652.2400
H     1.217056    0.280659    0.822585   -0.022968    1.466882   -0.030486
C     0.726247   -0.012390   -0.125914    0.001994   -0.126736    0.002634
H     1.121768    0.911799   -0.583009    0.657726    0.167342    0.674036
H     0.929413   -0.860278   -0.771859   -0.662276    0.118558   -0.680018
O    -0.676677   -0.009856    0.143953    0.000212   -0.013856    0.000292
H    -1.206361   -0.035857   -0.639463    0.000382   -0.022720    0.000468
6
* Frequency(12) 1652.2400
H     1.219559    0.120807    0.825907   -0.022968    1.466882   -0.030486
C     0.726030    0.001421   -0.126201    0.001994   -0.126736    0.002634
H     1.050093    0.893563   -0.656461    0.657726    0.167342    0.674036
H     1.001584   -0.873198   -0.697756   -0.662276    0.118558   -0.680018
O    -0.676700   -0.008346    0.143921    0.000212   -0.013856    0.000292
H    -1.206403   -0.033381   -0.639514    0.000382   -0.022720    0.000468
6
* Frequency(12) 1652.2400
H     1.222205   -0.048201    0.829419   -0.022968    1.466882   -0.030486
C     0.725800    0.016023   -0.126505    0.001994   -0.126736    0.002634
H     0.974313    0.874283   -0.734121    0.657726    0.167342    0.674036
H     1.077888   -0.886858   -0.619406   -0.662276    0.118558   -0.680018
O    -0.676724   -0.006750    0.143887    0.000212   -0.013856    0.000292
H    -1.206447   -0.030763   -0.639568    0.000382   -0.022720    0.000468
6
* Frequency(12) 1652.2400
H     1.224708   -0.208053    0.832741   -0.022968    1.466882   -0.030486
C     0.725583    0.029834   -0.126792    0.001994   -0.126736    0.002634
H     0.902638    0.856047   -0.807573    0.657726    0.167342    0.674036
H     1.150059   -0.899778   -0.545303   -0.662276    0.118558   -0.680018
O    -0.676747   -0.005240    0.143855    0.000212   -0.013856    0.000292
H    -1.206489   -0.028287   -0.639619    0.000382   -0.022720    0.000468
6
* Frequency(12) 1652.2400
H     1.226796   -0.341424    0.835513   -0.022968    1.466882   -0.030486
C     0.725402    0.041357   -0.127031    0.001994   -0.126736    0.002634
H     0.842836    0.840832   -0.868858    0.657726    0.167342    0.674036
H     1.210274   -0.910557   -0.483474   -0.662276    0.118558   -0.680018
O    -0.676767   -0.003980    0.143829    0.000212   -0.013856    0.000292
H    -1.206523   -0.026222   -0.639662    0.000382   -0.022720    0.000468
6
* Frequency(12) 1652.2400
H     1.228244   -0.433863    0.837434   -0.022968    1.466882   -0.030486
C     0.725276    0.049344   -0.127197    0.001994   -0.126736    0.002634
H     0.801388    0.830286   -0.911333    0.657726    0.167342    0.674036
H     1.252009   -0.918028   -0.440621   -0.662276    0.118558   -0.680018
O    -0.676780   -0.003107    0.143810    0.000212   -0.013856    0.000292
H    -1.206547   -0.024790   -0.639691    0.000382   -0.022720    0.000468
6
* Frequency(12) 1652.2400
H     1.228893   -0.475352    0.838297   -0.022968    1.466882   -0.030486
C     0.725219    0.052928   -0.127272    0.001994   -0.126736    0.002634
H     0.782785    0.825553   -0.930398    0.657726    0.167342    0.674036
H     1.270741   -0.921382   -0.421388   -0.662276    0.118558   -0.680018
O    -0.676786   -0.002715    0.143802    0.000212   -0.013856    0.000292
H    -1.206558   -0.024147   -0.639704    0.000382   -0.022720    0.000468
6
* Frequency(12) 1652.2400
H     1.228675   -0.461396    0.838007   -0.022968    1.466882   -0.030486
C     0.725238    0.051722   -0.127247    0.001994   -0.126736    0.002634
H     0.789043    0.827146   -0.923985    0.657726    0.167342    0.674036
H     1.264440   -0.920254   -0.427858   -0.662276    0.118558   -0.680018
O    -0.676784   -0.002847    0.143805    0.000212   -0.013856    0.000292
H    -1.206555   -0.024363   -0.639700    0.000382   -0.022720    0.000468
6
* Frequency(12) 1652.2400
H     1.227612   -0.393506    0.836596   -0.022968    1.466882   -0.030486
C     0.725331    0.045857   -0.127125    0.001994   -0.126736    0.002634
H     0.819484    0.834890   -0.892789    0.657726    0.167342    0.674036
H     1.233788   -0.914766   -0.459330   -0.662276    0.118558   -0.680018
O    -0.676774   -0.003488    0.143818    0.000212   -0.013856    0.000292
H    -1.206537   -0.025415   -0.639678    0.000382   -0.022720    0.000468
6
* Frequency(12) 1652.2400
H     1.225820   -0.279039    0.834217   -0.022968    1.466882   -0.030486
C     0.725486    0.035967   -0.126919    0.001994   -0.126736    0.002634
H     0.870809    0.847949   -0.840192    0.657726    0.167342    0.674036
H     1.182108   -0.905515   -0.512395   -0.662276    0.118558   -0.680018
O    -0.676758   -0.004569    0.143841    0.000212   -0.013856    0.000292
H    -1.206507   -0.027188   -0.639642    0.000382   -0.022720    0.000468
6
* Frequency(12) 1652.2400
H     1.223492   -0.130401    0.831128   -0.022968    1.466882   -0.030486
C     0.725688    0.023125   -0.126652    0.001994   -0.126736    0.002634
H     0.937456    0.864905   -0.771892    0.657726    0.167342    0.674036
H     1.115000   -0.893502   -0.581300   -0.662276    0.118558   -0.680018
O    -0.676736   -0.005973    0.143871    0.000212   -0.013856    0.000292
H    -1.206468   -0.029490   -0.639594    0.000382   -0.022720    0.000468
6
* Frequency(12) 1652.2400
H     1.220882    0.036303    0.827663   -0.022968    1.466882   -0.030486
C     0.725915    0.008722   -0.126353    0.001994   -0.126736    0.002634
H     1.012203    0.883923   -0.695291    0.657726    0.167342    0.674036
H     1.039736   -0.880028   -0.658581   -0.662276    0.118558   -0.680018
O    -0.676712   -0.007548    0.143904    0.000212   -0.013856    0.000292
H    -1.206425   -0.032072   -0.639541    0.000382   -0.022720    0.000468
