6
* (null), Energy   -1000.0000000
H     1.220882    0.036303    0.827663    0.013230    0.000772    0.027570
C     0.725915    0.008722   -0.126353    0.002756   -0.000086   -0.006284
H     1.012203    0.883923   -0.695291    0.002536   -0.007068    0.004050
H     1.039736   -0.880028   -0.658581    0.002314    0.007306    0.003762
O    -0.676712   -0.007548    0.143904   -0.075566   -0.003260   -0.100294
H    -1.206425   -0.032072   -0.639541    1.148480    0.051780    1.631380
6
* Frequency(17) 4067.6500
H     1.222386    0.036391    0.830796    0.013230    0.000772    0.027570
C     0.726228    0.008712   -0.127067    0.002756   -0.000086   -0.006284
H     1.012491    0.883120   -0.694831    0.002536   -0.007068    0.004050
H     1.039999   -0.879198   -0.658153    0.002314    0.007306    0.003762
O    -0.685300   -0.007918    0.132506   -0.075566   -0.003260   -0.100294
H    -1.075906   -0.026187   -0.454143    1.148480    0.051780    1.631380
6
* Frequency(17) 4067.6500
H     1.223726    0.036469    0.833590    0.013230    0.000772    0.027570
C     0.726507    0.008704   -0.127704    0.002756   -0.000086   -0.006284
H     1.012748    0.882404   -0.694420    0.002536   -0.007068    0.004050
H     1.040233   -0.878457   -0.657772    0.002314    0.007306    0.003762
O    -0.692957   -0.008249    0.122343   -0.075566   -0.003260   -0.100294
H    -0.959531   -0.020941   -0.288836    1.148480    0.051780    1.631380
6
* Frequency(17) 4067.6500
H     1.224758    0.036529    0.835741    0.013230    0.000772    0.027570
C     0.726723    0.008697   -0.128194    0.002756   -0.000086   -0.006284
H     1.012946    0.881852   -0.694104    0.002536   -0.007068    0.004050
H     1.040414   -0.877887   -0.657479    0.002314    0.007306    0.003762
O    -0.698853   -0.008503    0.114517   -0.075566   -0.003260   -0.100294
H    -0.869911   -0.016900   -0.161533    1.148480    0.051780    1.631380
6
* Frequency(17) 4067.6500
H     1.225371    0.036565    0.837017    0.013230    0.000772    0.027570
C     0.726850    0.008693   -0.128485    0.002756   -0.000086   -0.006284
H     1.013063    0.881525   -0.693917    0.002536   -0.007068    0.004050
H     1.040521   -0.877549   -0.657305    0.002314    0.007306    0.003762
O    -0.702351   -0.008654    0.109875   -0.075566   -0.003260   -0.100294
H    -0.816757   -0.014504   -0.086030    1.148480    0.051780    1.631380
6
* Frequency(17) 4067.6500
H     1.225497    0.036572    0.837280    0.013230    0.000772    0.027570
C     0.726876    0.008692   -0.128545    0.002756   -0.000086   -0.006284
H     1.013088    0.881458   -0.693878    0.002536   -0.007068    0.004050
H     1.040543   -0.877480   -0.657269    0.002314    0.007306    0.003762
O    -0.703070   -0.008685    0.108921   -0.075566   -0.003260   -0.100294
H    -0.805830   -0.014011   -0.070508    1.148480    0.051780    1.631380
6
* Frequency(17) 4067.6500
H     1.225122    0.036550    0.836500    0.013230    0.000772    0.027570
C     0.726798    0.008694   -0.128367    0.002756   -0.000086   -0.006284
H     1.013016    0.881658   -0.693993    0.002536   -0.007068    0.004050
H     1.040478   -0.877686   -0.657375    0.002314    0.007306    0.003762
O    -0.700932   -0.008593    0.111758   -0.075566   -0.003260   -0.100294
H    -0.838313   -0.015475   -0.116650    1.148480    0.051780    1.631380
6
* Frequency(17) 4067.6500
H     1.224289    0.036502    0.834762    0.013230    0.000772    0.027570
C     0.726625    0.008700   -0.127971    0.002756   -0.000086   -0.006284
H     1.012856    0.882103   -0.694248    0.002536   -0.007068    0.004050
H     1.040332   -0.878147   -0.657612    0.002314    0.007306    0.003762
O    -0.696170   -0.008387    0.118078   -0.075566   -0.003260   -0.100294
H    -0.910688   -0.018738   -0.219455    1.148480    0.051780    1.631380
6
* Frequency(17) 4067.6500
H     1.223086    0.036432    0.832256    0.013230    0.000772    0.027570
C     0.726374    0.008708   -0.127400    0.002756   -0.000086   -0.006284
H     1.012625    0.882746   -0.694616    0.002536   -0.007068    0.004050
H     1.040121   -0.878811   -0.657954    0.002314    0.007306    0.003762
O    -0.689300   -0.008091    0.127197   -0.075566   -0.003260   -0.100294
H    -1.015109   -0.023446   -0.367783    1.148480    0.051780    1.631380
6
* Frequency(17) 4067.6500
H     1.221644    0.036347    0.829251    0.013230    0.000772    0.027570
C     0.726074    0.008717   -0.126715    0.002756   -0.000086   -0.006284
H     1.012349    0.883516   -0.695058    0.002536   -0.007068    0.004050
H     1.039869   -0.879607   -0.658364    0.002314    0.007306    0.003762
O    -0.681065   -0.007736    0.138126   -0.075566   -0.003260   -0.100294
H    -1.140263   -0.029089   -0.545560    1.148480    0.051780    1.631380
6
* Frequency(17) 4067.6500
H     1.220120    0.036259    0.826075    0.013230    0.000772    0.027570
C     0.725756    0.008727   -0.125991    0.002756   -0.000086   -0.006284
H     1.012057    0.884330   -0.695524    0.002536   -0.007068    0.004050
H     1.039603   -0.880449   -0.658798    0.002314    0.007306    0.003762
O    -0.672359   -0.007360    0.149682   -0.075566   -0.003260   -0.100294
H    -1.272587   -0.035055   -0.733522    1.148480    0.051780    1.631380
6
* Frequency(17) 4067.6500
H     1.218678    0.036174    0.823070    0.013230    0.000772    0.027570
C     0.725456    0.008736   -0.125306    0.002756   -0.000086   -0.006284
H     1.011781    0.885100   -0.695966    0.002536   -0.007068    0.004050
H     1.039351   -0.881245   -0.659208    0.002314    0.007306    0.003762
O    -0.664124   -0.007005    0.160611   -0.075566   -0.003260   -0.100294
H    -1.397741   -0.040698   -0.911299    1.148480    0.051780    1.631380
6
* Frequency(17) 4067.6500
H     1.217475    0.036104    0.820564    0.013230    0.000772    0.027570
C     0.725205    0.008744   -0.124735    0.002756   -0.000086   -0.006284
H     1.011550    0.885743   -0.696334    0.002536   -0.007068    0.004050
H     1.039140   -0.881909   -0.659550    0.002314    0.007306    0.003762
O    -0.657254   -0.006709    0.169730   -0.075566   -0.003260   -0.100294
H    -1.502162   -0.045406   -1.059627    1.148480    0.051780    1.631380
6
* Frequency(17) 4067.6500
H     1.216642    0.036056    0.818826    0.013230    0.000772    0.027570
C     0.725032    0.008750   -0.124339    0.002756   -0.000086   -0.006284
H     1.011390    0.886188   -0.696589    0.002536   -0.007068    0.004050
H     1.038994   -0.882370   -0.659787    0.002314    0.007306    0.003762
O    -0.652492   -0.006503    0.176050   -0.075566   -0.003260   -0.100294
H    -1.574537   -0.048669   -1.162432    1.148480    0.051780    1.631380
6
* Frequency(17) 4067.6500
H     1.216267    0.036034    0.818046    0.013230    0.000772    0.027570
C     0.724954    0.008752   -0.124161    0.002756   -0.000086   -0.006284
H     1.011318    0.886388   -0.696704    0.002536   -0.007068    0.004050
H     1.038929   -0.882576   -0.659893    0.002314    0.007306    0.003762
O    -0.650354   -0.006411    0.178887   -0.075566   -0.003260   -0.100294
H    -1.607020   -0.050133   -1.208574    1.148480    0.051780    1.631380
6
* Frequency(17) 4067.6500
H     1.216393    0.036041    0.818309    0.013230    0.000772    0.027570
C     0.724980    0.008751   -0.124221    0.002756   -0.000086   -0.006284
H     1.011343    0.886321   -0.696665    0.002536   -0.007068    0.004050
H     1.038951   -0.882507   -0.659857    0.002314    0.007306    0.003762
O    -0.651073   -0.006442    0.177933   -0.075566   -0.003260   -0.100294
H    -1.596093   -0.049640   -1.193052    1.148480    0.051780    1.631380
6
* Frequency(17) 4067.6500
H     1.217006    0.036077    0.819585    0.013230    0.000772    0.027570
C     0.725107    0.008747   -0.124512    0.002756   -0.000086   -0.006284
H     1.011460    0.885994   -0.696478    0.002536   -0.007068    0.004050
H     1.039058   -0.882169   -0.659683    0.002314    0.007306    0.003762
O    -0.654571   -0.006593    0.173291   -0.075566   -0.003260   -0.100294
H    -1.542939   -0.047244   -1.117549    1.148480    0.051780    1.631380
6
* Frequency(17) 4067.6500
H     1.218038    0.036137    0.821736    0.013230    0.000772    0.027570
C     0.725323    0.008740   -0.125002    0.002756   -0.000086   -0.006284
H     1.011658    0.885442   -0.696162    0.002536   -0.007068    0.004050
H     1.039239   -0.881599   -0.659390    0.002314    0.007306    0.003762
O    -0.660467   -0.006847    0.165465   -0.075566   -0.003260   -0.100294
H    -1.453319   -0.043203   -0.990246    1.148480    0.051780    1.631380
6
* Frequency(17) 4067.6500
H     1.219378    0.036215    0.824530    0.013230    0.000772    0.027570
C     0.725602    0.008732   -0.125639    0.002756   -0.000086   -0.006284
H     1.011915    0.884726   -0.695751    0.002536   -0.007068    0.004050
H     1.039473   -0.880858   -0.659009    0.002314    0.007306    0.003762
O    -0.668124   -0.007178    0.155302   -0.075566   -0.003260   -0.100294
H    -1.336944   -0.037957   -0.824939    1.148480    0.051780    1.631380
6
* Frequency(17) 4067.6500
H     1.220882    0.036303    0.827663    0.013230    0.000772    0.027570
C     0.725915    0.008722   -0.126353    0.002756   -0.000086   -0.006284
H     1.012203    0.883923   -0.695291    0.002536   -0.007068    0.004050
H     1.039736   -0.880028   -0.658581    0.002314    0.007306    0.003762
O    -0.676712   -0.007548    0.143904   -0.075566   -0.003260   -0.100294
H    -1.206425   -0.032072   -0.639541    1.148480    0.051780    1.631380
