6
* (null), Energy   -1000.0000000
H     1.220882    0.036303    0.827663    0.242812    0.014410    0.510806
C     0.725915    0.008722   -0.126353   -0.074634    0.000248    0.069522
H     1.012203    0.883923   -0.695291    0.326200    1.116040   -0.695318
H     1.039736   -0.880028   -0.658581    0.361164   -1.132862   -0.648270
O    -0.676712   -0.007548    0.143904   -0.002622   -0.000038    0.000038
H    -1.206425   -0.032072   -0.639541    0.000770    0.000068    0.003762
6
* Frequency(14) 3157.6300
H     1.248476    0.037941    0.885713    0.242812    0.014410    0.510806
C     0.717433    0.008750   -0.118452   -0.074634    0.000248    0.069522
H     1.049274    1.010755   -0.774310    0.326200    1.116040   -0.695318
H     1.080780   -1.008772   -0.732254    0.361164   -1.132862   -0.648270
O    -0.677010   -0.007552    0.143908   -0.002622   -0.000038    0.000038
H    -1.206337   -0.032064   -0.639113    0.000770    0.000068    0.003762
6
* Frequency(14) 3157.6300
H     1.273080    0.039401    0.937473    0.242812    0.014410    0.510806
C     0.709871    0.008775   -0.111408   -0.074634    0.000248    0.069522
H     1.082328    1.123843   -0.844767    0.326200    1.116040   -0.695318
H     1.117377   -1.123564   -0.797942    0.361164   -1.132862   -0.648270
O    -0.677276   -0.007556    0.143912   -0.002622   -0.000038    0.000038
H    -1.206259   -0.032057   -0.638732    0.000770    0.000068    0.003762
6
* Frequency(14) 3157.6300
H     1.292028    0.040525    0.977333    0.242812    0.014410    0.510806
C     0.704047    0.008795   -0.105982   -0.074634    0.000248    0.069522
H     1.107782    1.210932   -0.899025    0.326200    1.116040   -0.695318
H     1.145560   -1.211966   -0.848529    0.361164   -1.132862   -0.648270
O    -0.677480   -0.007559    0.143915   -0.002622   -0.000038    0.000038
H    -1.206199   -0.032052   -0.638439    0.000770    0.000068    0.003762
6
* Frequency(14) 3157.6300
H     1.303266    0.041192    1.000974    0.242812    0.014410    0.510806
C     0.700592    0.008806   -0.102765   -0.074634    0.000248    0.069522
H     1.122879    1.262584   -0.931206    0.326200    1.116040   -0.695318
H     1.162275   -1.264397   -0.878533    0.361164   -1.132862   -0.648270
O    -0.677602   -0.007561    0.143917   -0.002622   -0.000038    0.000038
H    -1.206164   -0.032049   -0.638265    0.000770    0.000068    0.003762
6
* Frequency(14) 3157.6300
H     1.305576    0.041329    1.005834    0.242812    0.014410    0.510806
C     0.699882    0.008809   -0.102103   -0.074634    0.000248    0.069522
H     1.125983    1.273203   -0.937821    0.326200    1.116040   -0.695318
H     1.165712   -1.275175   -0.884701    0.361164   -1.132862   -0.648270
O    -0.677627   -0.007561    0.143917   -0.002622   -0.000038    0.000038
H    -1.206156   -0.032048   -0.638229    0.000770    0.000068    0.003762
6
* Frequency(14) 3157.6300
H     1.298708    0.040922    0.991387    0.242812    0.014410    0.510806
C     0.701993    0.008801   -0.104070   -0.074634    0.000248    0.069522
H     1.116757    1.241637   -0.918155    0.326200    1.116040   -0.695318
H     1.155497   -1.243134   -0.866365    0.361164   -1.132862   -0.648270
O    -0.677552   -0.007560    0.143916   -0.002622   -0.000038    0.000038
H    -1.206178   -0.032050   -0.638335    0.000770    0.000068    0.003762
6
* Frequency(14) 3157.6300
H     1.283407    0.040014    0.959197    0.242812    0.014410    0.510806
C     0.706696    0.008786   -0.108451   -0.074634    0.000248    0.069522
H     1.096201    1.171307   -0.874338    0.326200    1.116040   -0.695318
H     1.132737   -1.171744   -0.825513    0.361164   -1.132862   -0.648270
O    -0.677387   -0.007558    0.143914   -0.002622   -0.000038    0.000038
H    -1.206227   -0.032054   -0.638572    0.000770    0.000068    0.003762
6
* Frequency(14) 3157.6300
H     1.261330    0.038703    0.912754    0.242812    0.014410    0.510806
C     0.713482    0.008763   -0.114772   -0.074634    0.000248    0.069522
H     1.066542    1.069835   -0.811118    0.326200    1.116040   -0.695318
H     1.099899   -1.068742   -0.766571    0.361164   -1.132862   -0.648270
O    -0.677149   -0.007554    0.143910   -0.002622   -0.000038    0.000038
H    -1.206297   -0.032061   -0.638914    0.000770    0.000068    0.003762
6
* Frequency(14) 3157.6300
H     1.234870    0.037133    0.857090    0.242812    0.014410    0.510806
C     0.721615    0.008736   -0.122348   -0.074634    0.000248    0.069522
H     1.030995    0.948216   -0.735347    0.326200    1.116040   -0.695318
H     1.060542   -0.945290   -0.695927    0.361164   -1.132862   -0.648270
O    -0.676863   -0.007550    0.143906   -0.002622   -0.000038    0.000038
H    -1.206381   -0.032068   -0.639324    0.000770    0.000068    0.003762
6
* Frequency(14) 3157.6300
H     1.206894    0.035473    0.798236    0.242812    0.014410    0.510806
C     0.730215    0.008708   -0.130358   -0.074634    0.000248    0.069522
H     0.993411    0.819630   -0.655235    0.326200    1.116040   -0.695318
H     1.018930   -0.814766   -0.621235    0.361164   -1.132862   -0.648270
O    -0.676561   -0.007546    0.143902   -0.002622   -0.000038    0.000038
H    -1.206469   -0.032076   -0.639758    0.000770    0.000068    0.003762
6
* Frequency(14) 3157.6300
H     1.180434    0.033903    0.742572    0.242812    0.014410    0.510806
C     0.738348    0.008681   -0.137934   -0.074634    0.000248    0.069522
H     0.957864    0.698011   -0.579464    0.326200    1.116040   -0.695318
H     0.979573   -0.691314   -0.550591    0.361164   -1.132862   -0.648270
O    -0.676275   -0.007542    0.143898   -0.002622   -0.000038    0.000038
H    -1.206553   -0.032083   -0.640168    0.000770    0.000068    0.003762
6
* Frequency(14) 3157.6300
H     1.158357    0.032592    0.696129    0.242812    0.014410    0.510806
C     0.745134    0.008658   -0.144255   -0.074634    0.000248    0.069522
H     0.928205    0.596539   -0.516244    0.326200    1.116040   -0.695318
H     0.946735   -0.588312   -0.491649    0.361164   -1.132862   -0.648270
O    -0.676037   -0.007538    0.143894   -0.002622   -0.000038    0.000038
H    -1.206623   -0.032090   -0.640510    0.000770    0.000068    0.003762
6
* Frequency(14) 3157.6300
H     1.143056    0.031684    0.663939    0.242812    0.014410    0.510806
C     0.749837    0.008643   -0.148636   -0.074634    0.000248    0.069522
H     0.907649    0.526209   -0.472427    0.326200    1.116040   -0.695318
H     0.923975   -0.516922   -0.450797    0.361164   -1.132862   -0.648270
O    -0.675872   -0.007536    0.143892   -0.002622   -0.000038    0.000038
H    -1.206672   -0.032094   -0.640747    0.000770    0.000068    0.003762
6
* Frequency(14) 3157.6300
H     1.136188    0.031277    0.649492    0.242812    0.014410    0.510806
C     0.751948    0.008635   -0.150603   -0.074634    0.000248    0.069522
H     0.898423    0.494643   -0.452761    0.326200    1.116040   -0.695318
H     0.913760   -0.484881   -0.432461    0.361164   -1.132862   -0.648270
O    -0.675797   -0.007535    0.143891   -0.002622   -0.000038    0.000038
H    -1.206694   -0.032096   -0.640853    0.000770    0.000068    0.003762
6
* Frequency(14) 3157.6300
H     1.138498    0.031414    0.654352    0.242812    0.014410    0.510806
C     0.751238    0.008638   -0.149941   -0.074634    0.000248    0.069522
H     0.901527    0.505262   -0.459376    0.326200    1.116040   -0.695318
H     0.917197   -0.495659   -0.438629    0.361164   -1.132862   -0.648270
O    -0.675822   -0.007535    0.143891   -0.002622   -0.000038    0.000038
H    -1.206686   -0.032095   -0.640817    0.000770    0.000068    0.003762
6
* Frequency(14) 3157.6300
H     1.149736    0.032081    0.677993    0.242812    0.014410    0.510806
C     0.747783    0.008649   -0.146724   -0.074634    0.000248    0.069522
H     0.916624    0.556914   -0.491557    0.326200    1.116040   -0.695318
H     0.933912   -0.548090   -0.468633    0.361164   -1.132862   -0.648270
O    -0.675944   -0.007537    0.143893   -0.002622   -0.000038    0.000038
H    -1.206651   -0.032092   -0.640643    0.000770    0.000068    0.003762
6
* Frequency(14) 3157.6300
H     1.168684    0.033205    0.717853    0.242812    0.014410    0.510806
C     0.741959    0.008669   -0.141298   -0.074634    0.000248    0.069522
H     0.942078    0.644003   -0.545815    0.326200    1.116040   -0.695318
H     0.962095   -0.636492   -0.519220    0.361164   -1.132862   -0.648270
O    -0.676148   -0.007540    0.143896   -0.002622   -0.000038    0.000038
H    -1.206591   -0.032087   -0.640350    0.000770    0.000068    0.003762
6
* Frequency(14) 3157.6300
H     1.193288    0.034665    0.769613    0.242812    0.014410    0.510806
C     0.734397    0.008694   -0.134254   -0.074634    0.000248    0.069522
H     0.975132    0.757091   -0.616272    0.326200    1.116040   -0.695318
H     0.998692   -0.751284   -0.584908    0.361164   -1.132862   -0.648270
O    -0.676414   -0.007544    0.143900   -0.002622   -0.000038    0.000038
H    -1.206513   -0.032080   -0.639969    0.000770    0.000068    0.003762
6
* Frequency(14) 3157.6300
H     1.220882    0.036303    0.827663    0.242812    0.014410    0.510806
C     0.725915    0.008722   -0.126353   -0.074634    0.000248    0.069522
H     1.012203    0.883923   -0.695291    0.326200    1.116040   -0.695318
H     1.039736   -0.880028   -0.658581    0.361164   -1.132862   -0.648270
O    -0.676712   -0.007548    0.143904   -0.002622   -0.000038    0.000038
H    -1.206425   -0.032072   -0.639541    0.000770    0.000068    0.003762
