6
* (null), Energy   -1000.0000000
H     1.220882    0.036303    0.827663    1.215696    0.012876   -0.289318
C     0.725915    0.008722   -0.126353    0.830750    0.011378   -0.076982
H     1.012203    0.883923   -0.695291    0.201490    0.013554   -0.333868
H     1.039736   -0.880028   -0.658581    0.201986   -0.021144   -0.333110
O    -0.676712   -0.007548    0.143904   -0.756990   -0.008356    0.166430
H    -1.206425   -0.032072   -0.639541    0.496850   -0.008252   -0.767998
6
* Frequency(7) 1114.9800
H     1.359040    0.037766    0.794784    1.215696    0.012876   -0.289318
C     0.820325    0.010015   -0.135102    0.830750    0.011378   -0.076982
H     1.035101    0.885463   -0.733233    0.201490    0.013554   -0.333868
H     1.062691   -0.882431   -0.696437    0.201986   -0.021144   -0.333110
O    -0.762740   -0.008498    0.162818   -0.756990   -0.008356    0.166430
H    -1.149961   -0.033010   -0.726820    0.496850   -0.008252   -0.767998
6
* Frequency(7) 1114.9800
H     1.482226    0.039071    0.765467    1.215696    0.012876   -0.289318
C     0.904505    0.011168   -0.142902    0.830750    0.011378   -0.076982
H     1.055518    0.886837   -0.767064    0.201490    0.013554   -0.333868
H     1.083158   -0.884573   -0.730191    0.201986   -0.021144   -0.333110
O    -0.839446   -0.009344    0.179682   -0.756990   -0.008356    0.166430
H    -1.099615   -0.033846   -0.804641    0.496850   -0.008252   -0.767998
6
* Frequency(7) 1114.9800
H     1.577091    0.040076    0.742890    1.215696    0.012876   -0.289318
C     0.969332    0.012056   -0.148909    0.830750    0.011378   -0.076982
H     1.071241    0.887894   -0.793117    0.201490    0.013554   -0.333868
H     1.098920   -0.886223   -0.756185    0.201986   -0.021144   -0.333110
O    -0.898516   -0.009996    0.192669   -0.756990   -0.008356    0.166430
H    -1.060844   -0.034490   -0.864571    0.496850   -0.008252   -0.767998
6
* Frequency(7) 1114.9800
H     1.633356    0.040672    0.729500    1.215696    0.012876   -0.289318
C     1.007780    0.012582   -0.152472    0.830750    0.011378   -0.076982
H     1.080567    0.888522   -0.808569    0.201490    0.013554   -0.333868
H     1.108268   -0.887202   -0.771602    0.201986   -0.021144   -0.333110
O    -0.933551   -0.010383    0.200372   -0.756990   -0.008356    0.166430
H    -1.037849   -0.034872   -0.900115    0.496850   -0.008252   -0.767998
6
* Frequency(7) 1114.9800
H     1.644922    0.040794    0.726748    1.215696    0.012876   -0.289318
C     1.015684    0.012691   -0.153205    0.830750    0.011378   -0.076982
H     1.082484    0.888651   -0.811746    0.201490    0.013554   -0.333868
H     1.110190   -0.887403   -0.774771    0.201986   -0.021144   -0.333110
O    -0.940754   -0.010463    0.201956   -0.756990   -0.008356    0.166430
H    -1.033121   -0.034950   -0.907422    0.496850   -0.008252   -0.767998
6
* Frequency(7) 1114.9800
H     1.610538    0.040430    0.734931    1.215696    0.012876   -0.289318
C     0.992188    0.012369   -0.151027    0.830750    0.011378   -0.076982
H     1.076785    0.888267   -0.802303    0.201490    0.013554   -0.333868
H     1.104477   -0.886805   -0.765350    0.201986   -0.021144   -0.333110
O    -0.919343   -0.010226    0.197248   -0.756990   -0.008356    0.166430
H    -1.047174   -0.034717   -0.885700    0.496850   -0.008252   -0.767998
6
* Frequency(7) 1114.9800
H     1.533928    0.039619    0.753163    1.215696    0.012876   -0.289318
C     0.939836    0.011652   -0.146176    0.830750    0.011378   -0.076982
H     1.064087    0.887413   -0.781263    0.201490    0.013554   -0.333868
H     1.091748   -0.885473   -0.744358    0.201986   -0.021144   -0.333110
O    -0.871639   -0.009700    0.186760   -0.756990   -0.008356    0.166430
H    -1.078484   -0.034197   -0.837303    0.496850   -0.008252   -0.767998
6
* Frequency(7) 1114.9800
H     1.423395    0.038448    0.779468    1.215696    0.012876   -0.289318
C     0.864303    0.010617   -0.139177    0.830750    0.011378   -0.076982
H     1.045768    0.886181   -0.750907    0.201490    0.013554   -0.333868
H     1.073383   -0.883550   -0.714071    0.201986   -0.021144   -0.333110
O    -0.802813   -0.008940    0.171628   -0.756990   -0.008356    0.166430
H    -1.123659   -0.033447   -0.767475    0.496850   -0.008252   -0.767998
6
* Frequency(7) 1114.9800
H     1.290916    0.037045    0.810996    1.215696    0.012876   -0.289318
C     0.773773    0.009377   -0.130788    0.830750    0.011378   -0.076982
H     1.023810    0.884704   -0.714525    0.201490    0.013554   -0.333868
H     1.051372   -0.881246   -0.677771    0.201986   -0.021144   -0.333110
O    -0.720321   -0.008029    0.153492   -0.756990   -0.008356    0.166430
H    -1.177802   -0.032547   -0.683784    0.496850   -0.008252   -0.767998
6
* Frequency(7) 1114.9800
H     1.150848    0.035561    0.844330    1.215696    0.012876   -0.289318
C     0.678057    0.008067   -0.121918    0.830750    0.011378   -0.076982
H     1.000596    0.883142   -0.676057    0.201490    0.013554   -0.333868
H     1.028100   -0.878810   -0.639391    0.201986   -0.021144   -0.333110
O    -0.633103   -0.007067    0.134316   -0.756990   -0.008356    0.166430
H    -1.235048   -0.031597   -0.595298    0.496850   -0.008252   -0.767998
6
* Frequency(7) 1114.9800
H     1.018369    0.034158    0.875858    1.215696    0.012876   -0.289318
C     0.587527    0.006827   -0.113529    0.830750    0.011378   -0.076982
H     0.978638    0.881665   -0.639675    0.201490    0.013554   -0.333868
H     1.006089   -0.876506   -0.603091    0.201986   -0.021144   -0.333110
O    -0.550611   -0.006156    0.116180   -0.756990   -0.008356    0.166430
H    -1.289191   -0.030697   -0.511607    0.496850   -0.008252   -0.767998
6
* Frequency(7) 1114.9800
H     0.907836    0.032987    0.902163    1.215696    0.012876   -0.289318
C     0.511994    0.005792   -0.106530    0.830750    0.011378   -0.076982
H     0.960319    0.880433   -0.609319    0.201490    0.013554   -0.333868
H     0.987724   -0.874583   -0.572804    0.201986   -0.021144   -0.333110
O    -0.481785   -0.005396    0.101048   -0.756990   -0.008356    0.166430
H    -1.334366   -0.029947   -0.441779    0.496850   -0.008252   -0.767998
6
* Frequency(7) 1114.9800
H     0.831226    0.032176    0.920395    1.215696    0.012876   -0.289318
C     0.459642    0.005075   -0.101679    0.830750    0.011378   -0.076982
H     0.947621    0.879579   -0.588279    0.201490    0.013554   -0.333868
H     0.974995   -0.873251   -0.551812    0.201986   -0.021144   -0.333110
O    -0.434081   -0.004870    0.090560   -0.756990   -0.008356    0.166430
H    -1.365676   -0.029427   -0.393382    0.496850   -0.008252   -0.767998
6
* Frequency(7) 1114.9800
H     0.796842    0.031812    0.928578    1.215696    0.012876   -0.289318
C     0.436146    0.004753   -0.099501    0.830750    0.011378   -0.076982
H     0.941922    0.879195   -0.578836    0.201490    0.013554   -0.333868
H     0.969282   -0.872653   -0.542391    0.201986   -0.021144   -0.333110
O    -0.412670   -0.004633    0.085852   -0.756990   -0.008356    0.166430
H    -1.379729   -0.029194   -0.371660    0.496850   -0.008252   -0.767998
6
* Frequency(7) 1114.9800
H     0.808408    0.031934    0.925826    1.215696    0.012876   -0.289318
C     0.444050    0.004862   -0.100234    0.830750    0.011378   -0.076982
H     0.943839    0.879324   -0.582013    0.201490    0.013554   -0.333868
H     0.971204   -0.872854   -0.545560    0.201986   -0.021144   -0.333110
O    -0.419873   -0.004713    0.087436   -0.756990   -0.008356    0.166430
H    -1.375001   -0.029272   -0.378967    0.496850   -0.008252   -0.767998
6
* Frequency(7) 1114.9800
H     0.864673    0.032530    0.912436    1.215696    0.012876   -0.289318
C     0.482498    0.005388   -0.103797    0.830750    0.011378   -0.076982
H     0.953165    0.879952   -0.597465    0.201490    0.013554   -0.333868
H     0.980552   -0.873833   -0.560977    0.201986   -0.021144   -0.333110
O    -0.454908   -0.005100    0.095139   -0.756990   -0.008356    0.166430
H    -1.352006   -0.029654   -0.414511    0.496850   -0.008252   -0.767998
6
* Frequency(7) 1114.9800
H     0.959538    0.033535    0.889859    1.215696    0.012876   -0.289318
C     0.547325    0.006276   -0.109804    0.830750    0.011378   -0.076982
H     0.968888    0.881009   -0.623518    0.201490    0.013554   -0.333868
H     0.996314   -0.875483   -0.586971    0.201986   -0.021144   -0.333110
O    -0.513978   -0.005752    0.108126   -0.756990   -0.008356    0.166430
H    -1.313235   -0.030298   -0.474441    0.496850   -0.008252   -0.767998
6
* Frequency(7) 1114.9800
H     1.082724    0.034840    0.860542    1.215696    0.012876   -0.289318
C     0.631505    0.007429   -0.117604    0.830750    0.011378   -0.076982
H     0.989305    0.882383   -0.657349    0.201490    0.013554   -0.333868
H     1.016781   -0.877625   -0.620725    0.201986   -0.021144   -0.333110
O    -0.590684   -0.006598    0.124990   -0.756990   -0.008356    0.166430
H    -1.262889   -0.031134   -0.552262    0.496850   -0.008252   -0.767998
6
* Frequency(7) 1114.9800
H     1.220882    0.036303    0.827663    1.215696    0.012876   -0.289318
C     0.725915    0.008722   -0.126353    0.830750    0.011378   -0.076982
H     1.012203    0.883923   -0.695291    0.201490    0.013554   -0.333868
H     1.039736   -0.880028   -0.658581    0.201986   -0.021144   -0.333110
O    -0.676712   -0.007548    0.143904   -0.756990   -0.008356    0.166430
H    -1.206425   -0.032072   -0.639541    0.496850   -0.008252   -0.767998
