%chk=water_hf_input.chk
#p opt freq hf/6-311g(d,p) geom=connectivity

Title Card Required

0 1
 F                 -1.91775013   -0.68023896    1.17760406
 H                 -2.67341540   -0.37418916    0.98184786
 O                 -4.44328591    0.50107374    0.42201043
 H                 -4.59637323    1.34259482   -0.11624499
 H                 -4.75972589   -0.28613702   -0.02717211

 1 2 1.0
 2
 3 4 1.0 5 1.0
 4
 5

